! T. Tsujimura, W. J. Pitz, F. Gillespie, H. J. Curran, B. W. Weber, Y. Zhang and C.-J. Sung, 
!"Development of isopentanol reaction mechanism reproducing auto-ignition character at high and low temperatures," 
! Energy & Fuels  26 (8) (2012) 4871-4886.
! LLNL-MI-604172
! c4_41_mech.dat 
! from Henry Curran
! Modified for butanol isomers by C. K. Westbrook
! Modified for i-pentanol by Taku TSUJIMURA  2010/11/19
! (Low temp. chemistry has not been completed. for butanol isomers)
! Replaced Base Chemistry with Version:c4_53.6.inp by Taku TSUJIMURA 2011/06/28
! (c4_53.6.inp; Authors:W. K. Metcalfe, S. Burke, H. J. Curran)
! Add cl and hcl 2011/07/19
! Updated Base Chemistry with version:c4_54.1_release.inp by Taku TSUJIMURA 2011/8/19
! (c4_54.1_release.inp; Authors:W. K. Metcalfe, S. Burke, H. J. Curran)
!
THERMO
   300.000  1000.000  5000.000
c                 121086c   1               g  0300.00   5000.00  1000.00      1
 0.02602087e+02-0.01787081e-02 0.09087041e-06-0.01149933e-09 0.03310844e-14    2
 0.08542154e+06 0.04195177e+02 0.02498585e+02 0.08085777e-03-0.02697697e-05    3
 0.03040729e-08-0.01106652e-11 0.08545878e+06 0.04753459e+02                   4
! [_ SMILES="[H]" _]
! [_ INCHI="InChI=1/H" _]
! [_ CAS="12385-13-6" _]
h          8/12/99 thermh   1o   0    0    0g   300.000  5000.000 1000.000    01
 2.50104422e+00 0.00000000e+00 0.00000000e+00 0.00000000e+00 0.00000000e+00    2
 2.54747466e+04-4.65341317e-01 2.50104422e+00 0.00000000e+00 0.00000000e+00    3
 0.00000000e+00 0.00000000e+00 2.54747466e+04-4.65341317e-01                   4
n                 120186n   1               g  0300.00   5000.00  1000.00      1
 0.02450268e+02 0.01066146e-02-0.07465337e-06 0.01879652e-09-0.01025984e-13    2
 0.05611604e+06 0.04448758e+02 0.02503071e+02-0.02180018e-03 0.05420529e-06    3
-0.05647560e-09 0.02099904e-12 0.05609890e+06 0.04167566e+02                   4
! [_ SMILES="[O]" _]
! [_ INCHI="InChI=1/O" _]
! [_ CAS="17778-80-2" _]
o                 120186o   1               g  0300.00   5000.00  1000.00      1
 0.02542060e+02-0.02755062e-03-0.03102803e-07 0.04551067e-10-0.04368052e-14    2
 0.02923080e+06 0.04920308e+02 0.02946429e+02-0.01638166e-01 0.02421032e-04    3
-0.01602843e-07 0.03890696e-11 0.02914764e+06 0.02963995e+02                   4
! [_ SMILES="[Ar]" _]
! [_ INCHI="InChI=1/Ar" _]
! [_ CAS="7440-37-1" _]
ar                120186ar  1               g  0300.00   5000.00  1000.00      1
 0.02500000e+02 0.00000000e+00 0.00000000e+00 0.00000000e+00 0.00000000e+00    2
-0.07453750e+04 0.04366001e+02 0.02500000e+02 0.00000000e+00 0.00000000e+00    3
 0.00000000e+00 0.00000000e+00-0.07453750e+04 0.04366001e+02                   4
he                120186he  1               g  0300.00   5000.00  1000.00      1
 0.02500000e+02 0.00000000e+00 0.00000000e+00 0.00000000e+00 0.00000000e+00    2
-0.07453750e+04 0.09153489e+01 0.02500000e+02 0.00000000e+00 0.00000000e+00    3
 0.00000000e+00 0.00000000e+00-0.07453750e+04 0.09153488e+01                   4
! [_ SMILES="[H][H]" _]
! [_ INCHI="InChI=1/H2/h1H" _]
! [_ CAS="1333-74-0" _]
h2                121286h   2               g  0300.00   5000.00  1000.00      1
 0.02991423e+02 0.07000644e-02-0.05633829e-06-0.09231578e-10 0.01582752e-13    2
-0.08350340e+04-0.01355110e+02 0.03298124e+02 0.08249442e-02-0.08143015e-05    3
-0.09475434e-09 0.04134872e-11-0.01012521e+05-0.03294094e+02                   4
! [_ SMILES="O=O" _]
! [_ INCHI="InChI=1/O2/c1-2" _]
! [_ CAS="7782-44-7" _]
o2                121386o   2               g  0300.00   5000.00  1000.00      1
 0.03697578e+02 0.06135197e-02-0.01258842e-05 0.01775281e-09-0.01136435e-13    2
-0.01233930e+05 0.03189166e+02 0.03212936e+02 0.01127486e-01-0.05756150e-05    3
 0.01313877e-07-0.08768554e-11-0.01005249e+05 0.06034738e+02                   4
! [_ SMILES="[OH]" _]
! [_ INCHI="InChI=1/HO/h1H" _]
! [_ CAS="3352-57-6" _]
oh         curran 2004  o   1h   1    0    0g   300.000  5000.000 1373.000    01
 2.89080142e+00 1.03580697e-03-2.73888804e-07 3.14233602e-11-1.28582885e-15    2
 3.68169875e+03 5.55206679e+00 3.51661128e+00-2.17634829e-04 6.28785743e-07    3
-2.42056538e-10 2.72367648e-14 3.44025283e+03 2.11149893e+00                   4
! [_ SMILES="O" _]
! [_ INCHI="InChI=1/H2O/h1H2" _]
! [_ CAS="7732-18-5" _]
h2o                20387h   2o   1          g  0300.00   5000.00  1000.00      1
 0.02672146e+02 0.03056293e-01-0.08730260e-05 0.01200996e-08-0.06391618e-13    2
-0.02989921e+06 0.06862817e+02 0.03386842e+02 0.03474982e-01-0.06354696e-04    3
 0.06968581e-07-0.02506588e-10-0.03020811e+06 0.02590233e+02                   4
! [_ SMILES="[O]O" _]
! [_ INCHI="InChI=1/HO2/c1-2/h1H" _]
! [_ CAS="3170-83-0" _]
ho2        curran 2004  h   1o   2    0    0g   300.000  5000.000 1426.000    11
 4.73847074e+00 1.60455274e-03-5.79128791e-07 9.32005029e-11-5.54436074e-15    2
-2.94296200e+02-5.34138593e-01 3.32583730e+00 2.75201316e-03 1.17476160e-06    3
-2.08439503e-09 6.04923316e-13 3.89351744e+02 7.77951112e+00                   4
! [_ SMILES="OO" _]
! [_ INCHI="InChI=1/H2O2/c1-2/h1-2H" _]
! [_ CAS="7722-84-1" _]
h2o2              120186h   2o   2          g  0300.00   5000.00  1000.00      1
 0.04573167e+02 0.04336136e-01-0.01474689e-04 0.02348904e-08-0.01431654e-12    2
-0.01800696e+06 0.05011370e+01 0.03388754e+02 0.06569226e-01-0.01485013e-05    3
-0.04625806e-07 0.02471515e-10-0.01766315e+06 0.06785363e+02                   4
! [_ SMILES="N#N" _]
! [_ INCHI="InChI=1/N2/c1-2" _]
! [_ CAS="7727-37-9" _]
n2                121286n   2               g  0300.00   5000.00  1000.00      1
 0.02926640e+02 0.01487977e-01-0.05684761e-05 0.01009704e-08-0.06753351e-13    2
-0.09227977e+04 0.05980528e+02 0.03298677e+02 0.01408240e-01-0.03963222e-04    3
 0.05641515e-07-0.02444855e-10-0.01020900e+05 0.03950372e+02                   4
! [_ SMILES="[C]=O" _]
! [_ INCHI="InChI=1/CO/c1-2" _]
! [_ CAS="630-08-0" _]
co                121286c   1o   1          g  0300.00   5000.00  1000.00      1
 0.03025078e+02 0.01442689e-01-0.05630828e-05 0.01018581e-08-0.06910952e-13    2
-0.01426835e+06 0.06108218e+02 0.03262452e+02 0.01511941e-01-0.03881755e-04    3
 0.05581944e-07-0.02474951e-10-0.01431054e+06 0.04848897e+02                   4
! [_ SMILES="O=C=O" _]
! [_ INCHI="InChI=1/CO2/c2-1-3" _]
! [_ CAS="124-38-9" _]
co2               121286c   1o   2          g  0300.00   5000.00  1000.00      1
 0.04453623e+02 0.03140169e-01-0.01278411e-04 0.02393997e-08-0.01669033e-12    2
-0.04896696e+06-0.09553959e+01 0.02275725e+02 0.09922072e-01-0.01040911e-03    3
 0.06866687e-07-0.02117280e-10-0.04837314e+06 0.01018849e+03                   4
! [_ SMILES="C=O" _]
! [_ INCHI="InChI=1/CH2O/c1-2/h1H2" _]
! [_ CAS="50-00-0" _]
ch2o             121286 c   1h   2o   1     g   300.00   5000.00  1000.00      1
 0.02995606e+02 0.06681321e-01-0.02628955e-04 0.04737153e-08-0.03212517e-12    2
-0.01532037e+06 0.06912572e+02 0.01652731e+02 0.01263144e+00-0.01888168e-03    3
 0.02050031e-06-0.08413237e-10-0.01486540e+06 0.01378482e+03                   4
! [_ SMILES="[CH]=O" _]
! [_ INCHI="InChI=1/CHO/c1-2/h1H" _]
! [_ CAS="2597-44-6" _]
hco               121286h   1c   1o   1     g  0300.00   5000.00  1000.00      1
 0.03557271e+02 0.03345573e-01-0.01335006e-04 0.02470573e-08-0.01713851e-12    2
 0.03916324e+05 0.05552299e+02 0.02898330e+02 0.06199147e-01-0.09623084e-04    3
 0.01089825e-06-0.04574885e-10 0.04159922e+05 0.08983614e+02                   4
! [_ SMILES="OOC=O" _]
! [_ INCHI="InChI=1/CH2O3/c2-1-4-3/h1,3H" _]
ho2cho     7/ 1/99 thermc   1h   2o   3    0g   300.000  5000.000 1376.000    11
 6.68733013e+00 5.14289368e-03-1.82238513e-06 2.89719163e-10-1.70892199e-14    2
-4.83995400e+04-1.13104798e+01 1.43548185e+00 1.63363016e-02-1.06257421e-05    3
 3.32132977e-09-4.02176103e-13-4.64616504e+04 1.72885798e+01                   4
! [_ SMILES="[O]OC=O" _]
! [_ INCHI="InChI=1/CHO3/c2-1-4-3/h1H" _]
o2cho      7/ 1/99 thermc   1h   1o   3    0g   300.000  5000.000 1376.000    01
 5.69424313e+00 3.80254685e-03-1.34588655e-06 2.13806333e-10-1.26050130e-14    2
-2.17192783e+04-5.13886527e+00 1.92396001e+00 1.15312995e-02-6.96484769e-06    3
 1.86741565e-09-1.61493244e-13-2.03035284e+04 1.54907640e+01                   4
hocho      7/ 1/99 thermc   1h   2o   2    0g   300.000  5000.000 1376.000    11
 6.68733013e+00 5.14289368e-03-1.82238513e-06 2.89719163e-10-1.70892199e-14    2
-4.83995400e+04-1.13104798e+01 1.43548185e+00 1.63363016e-02-1.06257421e-05    3
 3.32132977e-09-4.02176103e-13-4.64616504e+04 1.72885798e+01                   4
! [_ SMILES="[O]C=O" _]
! [_ INCHI="InChI=1/CHO2/c2-1-3/h1H" _]
ocho       7/ 1/99 thermc   1h   1o   2    0g   300.000  5000.000 1376.000    01
 5.69424313e+00 3.80254685e-03-1.34588655e-06 2.13806333e-10-1.26050130e-14    2
-2.17192783e+04-5.13886527e+00 1.92396001e+00 1.15312995e-02-6.96484769e-06    3
 1.86741565e-09-1.61493244e-13-2.03035284e+04 1.54907640e+01                   4
hoch2o     8/ 4/99 thermc   1h   3o   2    0g   300.000  5000.000 1452.000    11
 6.39521515e+00 7.43673043e-03-2.50422354e-06 3.84879712e-10-2.21778689e-14    2
-2.47500385e+04-7.29290847e+00 4.11183145e+00 7.53850697e-03 3.77337370e-06    3
-5.38746005e-09 1.45615887e-12-2.34414546e+04 6.81381989e+00                   4
! [_ SMILES="CO" _]
! [_ INCHI="InChI=1/CH4O/c1-2/h2H,1H3" _]
! [_ CAS="67-56-1" _]
ch3oh             121686c   1h   4o   1     g  0300.00   5000.00  1000.00      1
 0.04029061e+02 0.09376593e-01-0.03050254e-04 0.04358793e-08-0.02224723e-12    2
-0.02615791e+06 0.02378196e+02 0.02660115e+02 0.07341508e-01 0.07170051e-04    3
-0.08793194e-07 0.02390570e-10-0.02535348e+06 0.01123263e+03                   4
! [_ SMILES="[CH2]O" _]
! [_ INCHI="InChI=1/CH3O/c1-2/h2H,1H2" _]
! [_ CAS="2597-43-5" _]
ch2oh             120186h   3c   1o   1     g   250.00   4000.00  1000.00      1
 0.06327520e+02 0.03608271e-01-0.03201547e-05-0.01938750e-08 0.03509705e-12    2
-0.04474509e+05-0.08329366e+02 0.02862628e+02 0.01001527e+00-0.05285436e-05    3
-0.05138540e-07 0.02246041e-10-0.03349679e+05 0.01039794e+03                   4
! [_ SMILES="C[O]" _]
! [_ INCHI="InChI=1/CH3O/c1-2/h1H3" _]
! [_ CAS="2143-68-2" _]
ch3o              121686c   1h   3o   1     g  0300.00   3000.00  1000.00      1
 0.03770800e+02 0.07871497e-01-0.02656384e-04 0.03944431e-08-0.02112616e-12    2
 0.01278325e+04 0.02929575e+02 0.02106204e+02 0.07216595e-01 0.05338472e-04    3
-0.07377636e-07 0.02075611e-10 0.09786011e+04 0.01315218e+03                   4
! [_ SMILES="COO" _]
! [_ INCHI="InChI=1/CH4O2/c1-3-2/h2H,1H3" _]
! [_ CAS="3031-73-0" _]
ch3o2h     7/13/98 thermc   1h   4o   2    0g   300.000  5000.000 1390.000    21
 8.43117091e+00 8.06817909e-03-2.77094921e-06 4.31332243e-10-2.50692146e-14    2
-1.96678771e+04-1.91170629e+01 3.23442817e+00 1.90129767e-02-1.13386287e-05    3
 3.40306653e-09-4.11830222e-13-1.77197926e+04 9.25623949e+00                   4
! [_ SMILES="CO[O]" _]
! [_ INCHI="InChI=1/CH3O2/c1-3-2/h1H3" _]
! [_ CAS="2143-58-0" _]
ch3o2      7/13/98 thermc   1h   3o   2    0g   300.000  5000.000 1385.000    11
 5.95787891e+00 7.90728626e-03-2.68246234e-06 4.13891337e-10-2.39007330e-14    2
-1.53574838e+03-4.71963886e+00 4.26146906e+00 1.00873599e-02-3.21506184e-06    3
 2.09409267e-10 4.18339103e-14-6.84394259e+02 5.16330320e+00                   4
! [_ SMILES="C" _]
! [_ INCHI="InChI=1/CH4/h1H4" _]
! [_ CAS="74-82-8" _]
ch4               121286c   1h   4          g  0300.00   5000.00  1000.00      1
 0.01683479e+02 0.01023724e+00-0.03875129e-04 0.06785585e-08-0.04503423e-12    2
-0.01008079e+06 0.09623395e+02 0.07787415e+01 0.01747668e+00-0.02783409e-03    3
 0.03049708e-06-0.01223931e-09-0.09825229e+05 0.01372219e+03                   4
! [_ SMILES="[CH3]" _]
! [_ INCHI="InChI=1/CH3/h1H3" _]
! [_ CAS="2229-07-4" _]
ch3               121286c   1h   3          g  0300.00   5000.00  1000.00      1
 0.02844052e+02 0.06137974e-01-0.02230345e-04 0.03785161e-08-0.02452159e-12    2
 0.01643781e+06 0.05452697e+02 0.02430443e+02 0.01112410e+00-0.01680220e-03    3
 0.01621829e-06-0.05864953e-10 0.01642378e+06 0.06789794e+02                   4
! [_ SMILES="[3CH2]" _]
! [_ INCHI="InChI=1/CH2/h1H2" _]
! [_ CAS="2465-56-7" _]
! [_ EXCITED_STATE="Triplet" _]
ch2               120186c   1h   2          g  0250.00   4000.00  1000.00      1
 0.03636408e+02 0.01933057e-01-0.01687016e-05-0.01009899e-08 0.01808256e-12    2
 0.04534134e+06 0.02156561e+02 0.03762237e+02 0.01159819e-01 0.02489585e-05    3
 0.08800836e-08-0.07332435e-11 0.04536791e+06 0.01712578e+02                   4
! [_ SMILES="[CH2]" _]
! [_ INCHI="InChI=1/CH2/h1H2" _]
! [_ CAS="2465-56-7" _]
! [_ EXCITED_STATE="Singlet" _]
ch2(s)             31287c   1h   2          g  0300.00   4000.00  1000.00      1
 0.03552889e+02 0.02066788e-01-0.01914116e-05-0.01104673e-08 0.02021350e-12    2
 0.04984975e+06 0.01686570e+02 0.03971265e+02-0.01699089e-02 0.01025369e-04    3
 0.02492551e-07-0.01981266e-10 0.04989368e+06 0.05753207e+00                   4
! [_ SMILES="[CH]" _]
! [_ INCHI="InChI=1/CH/h1H" _]
! [_ CAS="3315-37-5" _]
ch                121286c   1h   1          g  0300.00   5000.00  1000.00      1
 0.02196223e+02 0.02340381e-01-0.07058201e-05 0.09007582e-09-0.03855040e-13    2
 0.07086723e+06 0.09178373e+02 0.03200202e+02 0.02072876e-01-0.05134431e-04    3
 0.05733890e-07-0.01955533e-10 0.07045259e+06 0.03331588e+02                   4
! [_ SMILES="CC" _]
! [_ INCHI="InChI=1/C2H6/c1-2/h1-2H3" _]
! [_ CAS="74-84-0" _]
c2h6       1/14/95 thermc   2h   6    0    0g   300.000  5000.000 1384.000    11
 6.10683385e+00 1.29236361e-02-4.42527196e-06 6.87391726e-10-3.98901732e-14    2
-1.37500014e+04-1.30081250e+01-2.52854344e-02 2.40764754e-02-1.11893472e-05    3
 2.08340901e-09-5.29868616e-14-1.12345534e+04 2.11648750e+01                   4
! [_ SMILES="[CH2]C" _]
! [_ INCHI="InChI=1/C2H5/c1-2/h1H2,2H3" _]
! [_ CAS="2025-56-1" _]
c2h5       1/14/95 thermc   2h   5    0    0g   300.000  5000.000 1394.000    11
 5.76650825e+00 1.06020320e-02-3.60972785e-06 5.58491264e-10-3.23178241e-14    2
 1.13578263e+04-7.95853559e+00 7.21130761e-02 2.32221131e-02-1.45619117e-05    3
 5.04902267e-09-7.68385313e-13 1.34589464e+04 2.29575692e+01                   4
! [_ SMILES="C=C" _]
! [_ INCHI="InChI=1/C2H4/c1-2/h1-2H2" _]
! [_ CAS="74-85-1" _]
c2h4              121286c   2h   4          g  0300.00   5000.00  1000.00      1
 0.03528419e+02 0.01148518e+00-0.04418385e-04 0.07844601e-08-0.05266848e-12    2
 0.04428289e+05 0.02230389e+02-0.08614880e+01 0.02796163e+00-0.03388677e-03    3
 0.02785152e-06-0.09737879e-10 0.05573046e+05 0.02421149e+03                   4
! [_ SMILES="[CH]=C" _]
! [_ INCHI="InChI=1/C2H3/c1-2/h1H,2H2" _]
! [_ CAS="2669-89-8" _]
c2h3               12787c   2h   3          g  0300.00   5000.00  1000.00      1
 0.05933468e+02 0.04017746e-01-0.03966740e-05-0.01441267e-08 0.02378644e-12    2
 0.03185435e+06-0.08530313e+02 0.02459276e+02 0.07371476e-01 0.02109873e-04    3
-0.01321642e-07-0.01184784e-10 0.03335225e+06 0.01155620e+03                   4
! [_ SMILES="C#C" _]
! [_ INCHI="InChI=1/C2H2/c1-2/h1-2H" _]
! [_ CAS="74-86-2" _]
c2h2              121386c   2h   2          g  0300.00   5000.00  1000.00      1
 0.04436770e+02 0.05376039e-01-0.01912817e-04 0.03286379e-08-0.02156710e-12    2
 0.02566766e+06-0.02800338e+02 0.02013562e+02 0.01519045e+00-0.01616319e-03    3
 0.09078992e-07-0.01912746e-10 0.02612444e+06 0.08805378e+02                   4
! [_ SMILES="[C]#C" _]
! [_ INCHI="InChI=1/C2H/c1-2/h1H" _]
! [_ CAS="2122-48-7" _]
c2h                81193c   2h   1          g  0300.00   4000.00  1000.00      1
 0.03986367e+02 0.03143123e-01-0.01267243e-04 0.02924363e-08-0.02716320e-12    2
 0.06655884e+06 0.01191063e+02 0.02737704e+02 0.08048446e-01-0.09244310e-04    3
 0.06525259e-07-0.01939580e-10 0.06683813e+06 0.07300220e+02                   4
! [_ SMILES="CC=O" _]
! [_ INCHI="InChI=1/C2H4O/c1-2-3/h2H,1H3" _]
! [_ CAS="75-07-0" _]
ch3cho    11/28/99      c   2h   4o   1    0g   300.000  5000.000 1366.000    11
 7.06734034e+00 9.72785577e-03-3.36197228e-06 5.25639518e-10-3.06473991e-14    2
-2.32754287e+04-1.33686458e+01 1.98023941e+00 1.69300955e-02-4.36472545e-06    3
-1.70119601e-09 7.72360943e-13-2.10195065e+04 1.56487028e+01                   4
! [_ SMILES="C[C]=O" _]
! [_ INCHI="InChI=1/C2H3O/c1-2-3/h1H3" _]
! [_ CAS="3170-69-2" _]
ch3co             120186c   2h   3o   1     g  0300.00   5000.00  1000.00      1
 0.05612279e+02 0.08449886e-01-0.02854147e-04 0.04238376e-08-0.02268404e-12    2
-0.05187863e+05-0.03274949e+02 0.03125278e+02 0.09778220e-01 0.04521448e-04    3
-0.09009462e-07 0.03193718e-10-0.04108508e+05 0.01122885e+03                   4
! [_ SMILES="[CH2]C=O" _]
! [_ INCHI="InChI=1/C2H3O/c1-2-3/h2H,1H2" _]
! [_ CAS="4400-01-5" _]
ch2cho         11/28/99 c   2h   3o   1    0g   300.000  5000.000 1380.000    11
 7.59510378e+00 6.87889086e-03-2.41175399e-06 3.80699662e-10-2.23446830e-14    2
-1.88934155e+03-1.66958732e+01 1.65214366e+00 1.96356890e-02-1.26868049e-05    3
 4.10229425e-09-5.39149963e-13 3.09109769e+02 1.56586657e+01                   4
! [_ SMILES="C=C=O" _]
! [_ INCHI="InChI=1/C2H2O/c1-2-3/h1H2" _]
! [_ CAS="463-51-4" _]
ch2co             121686c   2h   2o   1     g  0300.00   5000.00  1000.00      1
 0.06038817e+02 0.05804840e-01-0.01920954e-04 0.02794485e-08-0.01458868e-12    2
-0.08583402e+05-0.07657581e+02 0.02974971e+02 0.01211871e+00-0.02345046e-04    3
-0.06466685e-07 0.03905649e-10-0.07632637e+05 0.08673553e+02                   4
! [_ SMILES="[O]C#C" _]
! [_ INCHI="InChI=1/C2HO/c1-2-3/h1H" _]
! [_ CAS="51095-15-9" _]
hcco               32387h   1c   2o   1     g  0300.00   4000.00  1000.00      1
 0.06758073e+02 0.02000400e-01-0.02027607e-05-0.01041132e-08 0.01965165e-12    2
 0.01901513e+06-0.09071262e+02 0.05047965e+02 0.04453478e-01 0.02268283e-05    3
-0.01482095e-07 0.02250742e-11 0.01965892e+06 0.04818439e+01                   4
hccoh              32387h   2c   2o   1     g  0300.00   4000.00  1000.00      1
 0.07328324e+02 0.03336416e-01-0.03024705e-05-0.01781106e-08 0.03245168e-12    2
 0.07598258e+05-0.01401214e+03 0.03899465e+02 0.09701075e-01-0.03119309e-05    3
-0.05537732e-07 0.02465732e-10 0.08701190e+05 0.04491875e+02                   4
! [_ SMILES="CC(=O)OO" _]
! [_ INCHI="InChI=1/C2H4O3/c1-2(3)5-4/h4H,1H3" _]
ch3co3h    6/26/95      c   2h   4o   3    0g   300.000  5000.000 1391.000    31
 1.25060485e+01 9.47789695e-03-3.30402246e-06 5.19630793e-10-3.04233568e-14    2
-4.59856703e+04-3.79195947e+01 2.24135876e+00 3.37963514e-02-2.53887482e-05    3
 9.67583587e-09-1.49266157e-12-4.24677831e+04 1.70668133e+01                   4
! [_ CAS="88181-73-1" _]
! [_ SMILES="CC(=O)O[O]" _]
!InChI=1/C2H3O3/c1-2(3)5-4/h1H3
ch3co3     4/ 3/ 0 thermc   2h   3o   3    0g   300.000  5000.000 1391.000    21
 1.12522498e+01 8.33652672e-03-2.89014530e-06 4.52781734e-10-2.64354456e-14    2
-2.60238584e+04-2.96370457e+01 3.60373432e+00 2.70080341e-02-2.08293438e-05    3 
 8.50541104e-09-1.43846110e-12-2.34205171e+04 1.12014914e+01                   4
! [_ SMILES="CC(=O)[O]" _]
!InChI=1/C2H4O2/c1-2(3)4/h1H3
! [_ CAS="13799-69-4" _]
ch3co2     8/ 9/99 thermc   2h   3o   2    0g   300.000  5000.000 1395.000    11
 8.54059736e+00 8.32951214e-03-2.84722010e-06 4.41927196e-10-2.56373394e-14    2
-2.97290678e+04-2.10778361e+01 1.37440768e+00 2.49115604e-02-1.74308894e-05    3
 6.24799508e-09-9.09516835e-13-2.72330150e+04 1.74510638e+01                   4
! [_ SMILES="CCO" _]
! [_ INCHI="InChI=1/C2H6O/c1-2-3/h3H,2H2,1H3" _]
! [_ CAS="64-17-5" _]
c2h5oh     3/12/95 thermc   2h   6o   1    0g   300.000  5000.000 1391.000    11
 7.95264841e+00 1.31574144e-02-4.43693359e-06 6.82201160e-10-3.93096335e-14    2
-3.23602958e+04-1.76537972e+01 4.23149045e-01 2.92858167e-02-1.73845099e-05    3
 5.33639892e-09-6.74917252e-13-2.95683054e+04 2.33538763e+01                   4
! [_ SMILES="CC[O]" _]
! [_ INCHI="InChI=1/C2H5O/c1-2-3/h2H2,1H3" _]
! [_ CAS="2154-50-9" _]
c2h5o      3/12/95 thermc   2h   5o   1    0g   300.000  5000.000 1389.000    11
 7.87339772e+00 1.13072907e-02-3.84421421e-06 5.94414105e-10-3.43894538e-14    2
-6.07274953e+03-1.73416790e+01 4.94420708e-01 2.71774434e-02-1.65909010e-05    3
 5.15204200e-09-6.48496915e-13-3.35252925e+03 2.28079378e+01                   4
! [_ SMILES="[CH2]CO" _]
! [_ INCHI="InChI=1/C2H5O/c1-2-3/h3H,1-2H2" _]
! [_ CAS="4422-54-2" _]
pc2h4oh    3/12/95 thermc   2h   5o   1     g  0300.00   5000.00  1391.00      1
 7.52241939e+00 1.10492715e-02-3.72576465e-06 5.72827397e-10-3.30061759e-14    2
-7.29333590e+03-1.24958732e+01 1.17714711e+00 2.48115685e-02-1.50299503e-05    3
 4.79006785e-09-6.40994211e-13-4.95369043e+03 2.20081586e+01                   4
! [_ SMILES="C[CH]O" _]
! [_ INCHI="InChI=1/C2H5O/c1-2-3/h2-3H,1H3" _]
! [_ CAS="2348-46-1" _]
sc2h4oh    4/ 3/ 0 thermc   2h   5o   1    0g   300.000  5000.000 1392.000    21
 7.83524517e+00 1.08808198e-02-3.68694127e-06 5.68601361e-10-3.28288951e-14    2 
-1.07534311e+04-1.53495702e+01 1.91496477e+00 2.45693145e-02-1.63075399e-05    3  
 6.12282361e-09-1.00784363e-12-8.62161551e+03 1.65987309e+01                   4
! [_ SMILES="[O]OCCO" _]
! [_ INCHI="InChI=1/C2H5O3/c3-1-2-5-4/h3H,1-2H2" _]
! [_ CAS="40135-01-1" _]
o2c2h4oh   2/14/95      c   2h   5o   3    0g   300.000  5000.000 1392.000    31
 1.07432659e+01 1.30957787e-02-4.45370088e-06 6.88548738e-10-3.98230113e-14    2
-2.55911274e+04-2.33254953e+01 4.11839445e+00 2.72240632e-02-1.60824430e-05    3
 5.17033408e-09-7.31610168e-13-2.30857785e+04 1.28482112e+01                   4
! [_ SMILES="CCOO" _]
! [_ INCHI="InChI=1/C2H5O2/c1-2-4-3/h3H,2H2,1H3" _]
c2h5o2h    7/19/ 0 thermc   2h   6o   2    0g   300.000  5000.000 1383.000    31
 1.19442992e+01 1.26271597e-02-4.41776755e-06 6.96327353e-10-4.08268961e-14    2
-2.57408634e+04-3.73382394e+01 1.29970294e+00 3.65488420e-02-2.52808875e-05    3
 9.19746803e-09-1.41362233e-12-2.18866647e+04 2.02719078e+01                   4
! [_ SMILES="CCO[O]" _]
! [_ INCHI="InChI=1/C2H5O2/c1-2-4-3/h2H2,1H3" _]
c2h5o2     7/19/ 0 thermc   2h   5o   2    0g   300.000  5000.000 1382.000    21
 9.48696023e+00 1.24472545e-02-4.32161576e-06 6.77583033e-10-3.95784568e-14    2
-7.82481795e+03-2.30613020e+01 2.26846188e+00 2.76942578e-02-1.70804106e-05    3
 5.87951878e-09-9.20899069e-13-5.03880758e+03 1.64773972e+01                   4
! [_ SMILES="[CH2]COO" _]
! [_ INCHI="InChI=1/C2H5O2/c1-2-4-3/h3H,1-2H2" _]
c2h4o2h    7/19/ 0 thermc   2h   5o   2    0g   300.000  5000.000 1416.000    31
 1.04141161e+01 1.03535418e-02-3.40802617e-06 5.15328200e-10-2.93443242e-14    2
 9.20494999e+02-2.27319861e+01 3.54721135e+00 2.68422848e-02-1.84606216e-05    3
 6.70875659e-09-9.95440617e-13 3.23432979e+03 1.39436666e+01                   4
! [_ SMILES="C1CO1" _]
! [_ INCHI="InChI=1/C2H4O/c1-2-3-1/h1-2H2" _]
! [_ CAS="75-21-8" _]
c2h4o1-2   9/ 1/ 0 thermc   2h   4o   1    0g   300.000  5000.000 1399.000    01
 6.99485763e+00 1.00772459e-02-3.45220932e-06 5.36571216e-10-3.11563543e-14    2
-1.04091344e+04-1.59857976e+01-1.44361790e+00 2.91837107e-02-1.96805054e-05    3
 6.67472575e-09-9.02139342e-13-7.43433507e+03 2.95212453e+01                   4
! [_ SMILES="[CH]1CO1" _]
! [_ INCHI="InChI=1/C2H3O/c1-2-3-1/h1H,2H2" _]
! [_ CAS="31586-84-2" _]
c2h3o1-2   4/ 3/ 0 thermc   2h   3o   1    0g   300.000  5000.000 1492.000    01
 6.88486471e+00 6.94720501e-03-2.23214698e-06 3.32190767e-10-1.87124555e-14    2
 1.26442200e+04-1.23842570e+01-1.62965122e+00 2.93455486e-02-2.43737550e-05    3
 1.00522325e-08-1.61259036e-12 1.52459425e+04 3.22782741e+01                   4
! [_ SMILES="OC=C" _]
! [_ INCHI="InChI=1/C2H4O/c1-2-3/h2-3H,1H2" _]
c2h3oh     2/22/ 7 thermc   2h   4o   1    0g   300.000  5000.000 1409.000    11
 8.32837501e+00 7.52393290e-03-2.18650125e-06 3.04234678e-10-1.64342083e-14    2
-1.85039256e+04-1.96897779e+01 6.32320187e-02 3.06108962e-02-2.69388682e-05    3
 1.22831859e-08-2.20661167e-12-1.60665021e+04 2.32670734e+01                   4
! [_ SMILES="OC=[CH]" _]
! [_ INCHI="InChI=1/C2H3O/c1-2-3/h1-3H" _]
hcchoh     8/13/ 7 thermc   2h   3o   1    0g   300.000  5000.000 1411.000     1
 8.08589999e+00 5.40439348e-03-1.55258652e-06 2.13486072e-10-1.14112108e-14    2
 1.16372053e+04-1.65147643e+01 9.99819422e-01 2.70273221e-02-2.66916711e-05    3
 1.32529706e-08-2.53537494e-12 1.35529195e+04 1.96798606e+01                   4
! [_ SMILES="O[C]=C" _]
! [_ INCHI="InChI=1/C2H3O/c1-2-3/h3H,1H2" _]
ch2coh     8/13/ 7 thermc   2h   3o   1    0g   300.000  5000.000 1408.000     1
 7.67940243e+00 5.63609321e-03-1.57911872e-06 2.14057857e-10-1.13615509e-14    2
 1.06531188e+04-1.40057705e+01 1.85296033e+00 2.20741770e-02-1.93718642e-05    3
 8.89896145e-09-1.61108469e-12 1.23550086e+04 1.62184602e+01                   4
! [_ SMILES="CC(=O)C" _]
! [_ INCHI="InChI=1/C3H6O/c1-3(2)4/h1-2H3" _]
! [_ CAS="67-64-1" _]
ch3coch3   5/ 4/92 thermc   3h   6o   1    0g   300.000  5000.000 1374.000    21
 9.91421984e+00 1.46030709e-02-5.06085765e-06 7.92682855e-10-4.62739645e-14    2
-3.11167423e+04-2.86113215e+01 1.30767163e+00 2.92021742e-02-1.19045617e-05    3
 6.52150087e-10 4.67751203e-13-2.75328269e+04 1.96395025e+01                   4
! [_ SMILES="[CH2]C(=O)C" _]
! [_ INCHI="InChI=1/C3H5O/c1-3(2)4/h1H2,2H3" _]
! [_ CAS="3122-07-4" _]
ch3coch2   5/ 4/92 thermc   3h   5o   1    0g   300.000  5000.000 1391.000    21
 1.02303975e+01 1.16494161e-02-4.01005537e-06 6.25205246e-10-3.63784362e-14    2
-8.44380462e+03-2.79197220e+01 1.80339187e+00 3.01407085e-02-1.93505552e-05    3
 6.38199034e-09-8.66103180e-13-5.37233261e+03 1.78046408e+01                   4
! [_ SMILES="CC(=O)CO[O]" _]
! [_ INCHI="InChI=1/C3H5O3/c1-3(4)2-6-5/h2H2,1H3" _]
ch3coch2o2  2/14/95     c   3h   5o   3    0g   300.000  5000.000 1379.000    31
 1.27690342e+01 1.42554828e-02-4.92821461e-06 7.70448921e-10-4.49110534e-14    2
-2.34798669e+04-3.27155799e+01 5.95535468e+00 2.70255205e-02-1.37385031e-05    3
 3.53735851e-09-4.03922557e-13-2.06679464e+04 5.21436049e+00                   4
ch3coch2o2h 2/14/95     c   3h   6o   3    0g   300.000  5000.000 1381.000    41
 1.52372810e+01 1.44114651e-02-5.01290009e-06 7.87071229e-10-4.60225784e-14    2
-4.27564444e+04-4.77383784e+01 4.94789761e+00 3.60474432e-02-2.21719933e-05    3
 6.98296874e-09-9.21269260e-13-3.88687178e+04 8.49926130e+00                   4
! [_ SMILES="CC(=O)C[O]" _]
! [_ INCHI="InChI=1/C3H5O2/c1-3(4)2-5/h2H2,1H3" _]
ch3coch2o  4/ 3/ 0 thermc   3h   5o   2    0g   300.000  5000.000 1370.000    21
 1.14637586e+01 1.32124342e-02-4.56580495e-06 7.13897538e-10-4.16281047e-14    2
-2.23833017e+04-3.15127868e+01 3.72927689e+00 2.63943697e-02-1.09796486e-05    3
 8.58185303e-10 3.39474590e-13-1.91551565e+04 1.18505335e+01                   4
ch2o2h     3/27/97 thermc   1h   3o   2    0g   300.000  5000.000 1387.000    21
 9.11485569e+00 5.08455401e-03-1.77434554e-06 2.79202873e-10-1.63513161e-14    2
 3.77183263e+03-2.03682592e+01 4.59149302e+00 1.53929093e-02-1.08252672e-05    3
 3.94840151e-09-5.98062430e-13 5.38276049e+03 4.04080670e+00                   4
! [_ SMILES="C=CC=O" _]
! [_ INCHI="InChI=1/C3H4O/c1-2-3-4/h2-3H,1H2" _]
! [_ CAS="107-02-8" _]
c2h3cho    6/26/95      c   3h   4o   1    0g   300.000  5000.000 1393.000    11
 1.04184959e+01 9.48963321e-03-3.29310529e-06 5.16279203e-10-3.01587291e-14    2
-1.49630281e+04-3.07235061e+01 2.92355162e-01 3.54321417e-02-2.94936324e-05    3
 1.28100124e-08-2.26144108e-12-1.16521584e+04 2.28878280e+01                   4
! [_ SMILES="C=C[C]=O" _]
! [_ INCHI="InChI=1/C3H3O/c1-2-3-4/h2H,1H2" _]
! [_ CAS="72241-20-4" _]
c2h3co     4/ 3/ 0 thermc   3h   3o   1    0g   300.000  5000.000 1402.000    01
 9.37467676e+00 7.91296900e-03-2.67198280e-06 4.11115430e-10-2.36978981e-14    2 
 1.92969514e+03-2.40892696e+01 1.36242013e+00 3.15273972e-02-3.00218935e-05    3 
 1.48167112e-08-2.87971530e-12 4.25770215e+03 1.72626546e+01                   4
! [_ SMILES="CCC=O" _]
! [_ INCHI="InChI=1/C3H6O/c1-2-3-4/h3H,2H2,1H3" _]
! [_ CAS="123-38-6" _]
c2h5cho    6/26/95      c   3h   6o   1    0g   300.000  5000.000 1378.000    21
 1.02427695e+01 1.39641989e-02-4.76248001e-06 7.38105706e-10-4.27759503e-14    2
-2.74143135e+04-2.85346843e+01 2.16308444e+00 2.95501264e-02-1.52446252e-05    3
 3.49503947e-09-2.38896627e-13-2.42260137e+04 1.61153348e+01                   4
! [_ SMILES="CC[C]=O" _]
! [_ INCHI="InChI=1/C3H5O/c1-2-3-4/h2H2,1H3" _]
! [_ CAS="15843-24-0" _]
c2h5co     6/26/95      c   3h   5o   1    0g   300.000  5000.000 1373.000    21
 9.87881997e+00 1.17515676e-02-4.00614923e-06 6.20850617e-10-3.59835225e-14    2
-8.47292283e+03-2.49235196e+01 2.93313946e+00 2.47427911e-02-1.21222003e-05    3
 2.34701048e-09-5.26843338e-14-5.69663063e+03 1.35958355e+01                   4
ch2ch2cho  6/26/95      c   3h   5o   1    0g   300.000  5000.000 1371.000    21
 9.97669730e+00 1.15899378e-02-3.93593247e-06 6.08601507e-10-3.52246874e-14    2
-2.41115816e+03-2.36014420e+01 2.95202753e+00 2.48297051e-02-1.23487153e-05    3
 2.49449869e-09-8.44820689e-14 3.85181944e+02 1.53181388e+01                   4
ch3och3    7/20/98 thermc   2h   6o   1    0g   300.000  5000.000 1368.000    21
 8.27745836e+00 1.32135539e-02-4.53264362e-06 7.05316507e-10-4.09933283e-14    2
-2.61982700e+04-2.15190894e+01 1.50763450e+00 2.39914228e-02-8.68910500e-06    3
-9.66835762e-11 4.89319361e-13-2.32810894e+04 1.67317297e+01                   4
ch3och2    7/20/98 thermc   2h   5o   1    0g   300.000  5000.000 1376.000    21
 8.17137842e+00 1.10086181e-02-3.82352277e-06 5.99637202e-10-3.50317513e-14    2
-3.41941605e+03-1.78650856e+01 2.91327415e+00 2.03364659e-02-9.59712342e-06    3
 2.07478525e-09-1.71343362e-13-1.18844240e+03 1.16066817e+01                   4
ch3och2o2  7/20/98 thermc   2h   5o   3    0g   300.000  5000.000 1389.000    31
 1.24249729e+01 1.18705986e-02-4.07906532e-06 6.35310809e-10-3.69427867e-14    2
-2.29679238e+04-3.53740145e+01 2.21029612e+00 3.68877454e-02-2.82561555e-05    3