********************************************************************************
*
*                   REACTION MECHANISM FOR THE HIGH TEMPERATURE OXIDATION
*                                           OF N-HEPTANE
*
*                                  GENERATED BY EXGAS
*
*                         see Herbinet et al. Combustion anf Flame, 2012, submit
*
********************************************************************************
ELEMENTS
H O C N HE AR
END
SPECIES
! 261 especes

! Biradicals :
B1O
B2CO
B3C
B4CH
B5CH2
B6CH2

! Primary molecules :
! Reactants:
C7H16-1
H2
H2O
O2
H2O2
CH4
HCHO
CH3OH
CO2
CH3OOH
C2H2T
C2H4Z
C2H6
CH2COZ
CH3CHO
C2H5OH
C2H5OOH
CH3COOOH
C3H6Y
C3H8
C4H8Y
C4H10
C2H5CHO
C3H7OH
C2H6CO
C3H8CO
C4H6Z2
C2H3CHOZ
C3H6O3KP
C4H8O3KP
C7H14O3KP
C5H10O3KP
C5H10Z
M32C7H14Z
M31C7H14Z
M30C7H14Z
C6H12Z
C7H16O2P
C3H6O2PZ
C4H8O2PZ
C6H12O2PZ
C5H10O2PZ
C5H10Y
C4H8OA
C7H14OK
C7H14OA
C3H6O2PY
C5H10OA
C4H8O2PY
C5H10OK
C3H8O2P
C4H10OL
C5H12
C6H14
C4H10O2P
C5H12O2P

! Secondary molecules :
C6H12OA
C8H16Z
C3H6OLY
C4H6OAY
C4H8OLY
C6H10Y2
C7H12Y2
C8H14Y2
C5H8OAY
C5H10OLY
C9H16Y2
C5H10O2PY
C6H10OAY
C6H12OLY
C10H18Y2
C4H6OKZ

! Cyclic primary molecules :
C2H4OE#3
C3H6OE#3
C3H6OE#4
C4H8OE#3
C4H8OE#4
C4H8OE#5
M13C7H14OE#3
M10C7H14OE#3
M7C7H14OE#3

M16C7H14OE#4
M11C7H14OE#4
M8C7H14OE#4

M14C7H14OE#5
M9C7H14OE#5

M15C7H14OE#6
M12C7H14OE#6

C5H10OE#3
C5H10OE#4
C5H10OE#5
C5H10OE#6

! Cyclic secondary molecules :
C6H12OE#3
C8H16OE#3
C7H12O4E#4KP
C7H12O4E#5KP
C7H12O4E#6KP

! Benzenic primary molecules :

! Free radicals :
R1H   !   .h
R2OH   !   .oh
R3OOH   !   .o/oh
R4CH3   !   .ch3
R5CHO   !   .ch//o
R6CH2OH   !   .ch2/oh
R7CH3O   !   .o/ch3
R8CH3OO   !   .o/o/ch3
R9C2HT   !   .c///ch
R10C2H3V   !   .ch//ch2
R11C2H5   !   .ch2/ch3
R12CHCOV   !   .ch//c//o
R13CH2CHO   !   .ch2/ch//o
R14CH3CO   !   .c(//o)/ch3
R15C2H5O   !   .o/ch2/ch3
R16C2H4OOH   !   .ch2/ch2/o/oh
R17C2H5OO   !   .o/o/ch2/ch3
R18CH3COOO   !   .o/o/c(//o)/ch3
R19C3H7   !   .ch2/ch2/ch3
R20C4H9   !   .ch2/ch2/ch2/ch3
R21CH3OCO   !   .c(//o)/o/ch3
R22CO2H   !   .c(//o)/oh
R23C2H3O2B   !   .ch2/c(//o)/oh
R24C2H4OH   !   .ch2/ch2/oh
R25C2H4OH   !   .ch(/oh)/ch3
R26C7H15   !   .ch(/ch2/ch2/ch3)2
R27C7H15   !   .ch2/ch2/ch2/ch2/ch2/ch2/ch3
R28C7H15   !   .ch(/ch3)/ch2/ch2/ch2/ch2/ch3
R29C7H15   !   .ch(/ch2/ch3)/ch2/ch2/ch2/ch3
R30C3H7O2U   !   .o/o/ch2/ch2/ch3
R31C4H9O2U   !   .o/o/ch2/ch2/ch2/ch3
R32C7H15O2U   !   .o/o/ch(/ch2/ch2/ch3)2
R33C7H15O2U   !   .o/o/ch2/ch2/ch2/ch2/ch2/ch2/ch3
R34C5H11   !   .ch2/ch2/ch2/ch2/ch3
R35C7H15O2U   !   .o/o/ch(/ch3)/ch2/ch2/ch2/ch2/ch3
R36C7H15O2U   !   .o/o/ch(/ch2/ch3)/ch2/ch2/ch2/ch3
R37C3H7O2P   !   .ch(/ch3)/ch2/o/oh
R38C3H7O2P   !   .ch2/ch2/ch2/o/oh
R39C4H9O2P   !   .ch(/ch2/o/oh)/ch2/ch3
R40C4H9O2P   !   .ch(/ch3)/ch2/ch2/o/oh
R41C4H9O2P   !   .ch2/ch2/ch2/ch2/o/oh
R42C7H15O2P   !   .ch(/ch2/ch3)/ch(/o/oh)/ch2/ch2/ch3
R43C7H15O2P   !   .ch(/ch3)/ch2/ch(/o/oh)/ch2/ch2/ch3
R44C7H15O2P   !   .ch2/ch2/ch2/ch(/o/oh)/ch2/ch2/ch3
R45C7H15O2P   !   .ch(/ch2/o/oh)/ch2/ch2/ch2/ch2/ch3
R46C7H15O2P   !   .ch(/ch2/ch2/o/oh)/ch2/ch2/ch2/ch3
R47C7H15O2P   !   .ch(/ch2/ch2/ch3)/ch2/ch2/ch2/o/oh
R48C7H15O2P   !   .ch(/ch2/ch3)/ch2/ch2/ch2/ch2/o/oh
R49C5H11O2U   !   .o/o/ch2/ch2/ch2/ch2/ch3
R50C5H11   !   .ch(/ch3)/ch2/ch2/ch3
R51C7H15O2P   !   .ch2/ch(/o/oh)/ch2/ch2/ch2/ch2/ch3
R52C7H15O2P   !   .ch(/ch(/o/oh)/ch3)/ch2/ch2/ch2/ch3
R53C7H15O2P   !   .ch(/ch2/ch2/ch3)/ch2/ch(/o/oh)/ch3
R54C7H15O2P   !   .ch(/ch2/ch3)/ch2/ch2/ch(/o/oh)/ch3
R55C7H15O2P   !   .ch(/ch3)/ch2/ch2/ch2/ch(/o/oh)/ch3
R56C7H15O2P   !   .ch(/ch3)/ch(/o/oh)/ch2/ch2/ch2/ch3
R57C7H15O2P   !   .ch2/ch2/ch(/o/oh)/ch2/ch2/ch2/ch3
R58C7H15O2P   !   .ch(/ch2/ch2/ch3)/ch(/o/oh)/ch2/ch3
R59C7H15O2P   !   .ch(/ch2/ch3)/ch2/ch(/o/oh)/ch2/ch3
R60C7H15O2P   !   .ch(/ch3)/ch2/ch2/ch(/o/oh)/ch2/ch3
R61C7H15O2P   !   .ch2/ch2/ch2/ch2/ch(/o/oh)/ch2/ch3
R62C3H7O4UP   !   .o/o/ch(/ch3)/ch2/o/oh
R63C3H7O4UP   !   .o/o/ch2/ch2/ch2/o/oh
R64C4H9O4UP   !   .o/o/ch(/ch2/o/oh)/ch2/ch3
R65C4H9O4UP   !   .o/o/ch(/ch3)/ch2/ch2/o/oh
R66C4H9O4UP   !   .o/o/ch2/ch2/ch2/ch2/o/oh
R67C4H9O2P   !   .ch(/o/oh)/ch2/ch2/ch3
R68C7H15O4UP   !   .o/o/ch(/ch2/ch3)/ch(/o/oh)/ch2/ch2/ch3
R69C7H15O4UP   !   .o/o/ch(/ch3)/ch2/ch(/o/oh)/ch2/ch2/ch3
R70C7H15O4UP   !   .o/o/ch2/ch2/ch2/ch(/o/oh)/ch2/ch2/ch3
R71C7H15O2P   !   .c(/o/oh)(/ch2/ch2/ch3)2
R72C5H11O2P   !   .ch2/ch(/o/oh)/ch2/ch2/ch3
R73C7H15O4UP   !   .o/o/ch(/ch2/o/oh)/ch2/ch2/ch2/ch2/ch3
R74C7H15O2P   !   .ch(/ch3)/ch2/ch2/ch2/ch2/ch2/o/oh
R75C7H15O2P   !   .ch2/ch2/ch2/ch2/ch2/ch2/ch2/o/oh
R76C7H15O4UP   !   .o/o/ch(/ch2/ch2/o/oh)/ch2/ch2/ch2/ch3
R77C7H15O4UP   !   .o/o/ch(/ch2/ch2/ch3)/ch2/ch2/ch2/o/oh
R78C7H15O2P   !   .ch(/o/oh)/ch2/ch2/ch2/ch2/ch2/ch3
R79C7H15O4UP   !   .o/o/ch(/ch2/ch3)/ch2/ch2/ch2/ch2/o/oh
R80C5H11O2P   !   .ch(/ch2/o/oh)/ch2/ch2/ch3
R81C5H11O2P   !   .ch(/ch2/ch3)/ch2/ch2/o/oh
R82C5H11O2P   !   .ch(/ch3)/ch2/ch2/ch2/o/oh
R83C5H11O2P   !   .ch2/ch2/ch2/ch2/ch2/o/oh
R84C5H11O2U   !   .o/o/ch(/ch3)/ch2/ch2/ch3
R85C7H15O4UP   !   .o/o/ch2/ch(/o/oh)/ch2/ch2/ch2/ch2/ch3
R86C7H15O2P   !   .ch2/ch2/ch2/ch2/ch2/ch(/o/oh)/ch3
R87C7H15O4UP   !   .o/o/ch(/ch(/o/oh)/ch3)/ch2/ch2/ch2/ch3
R88C7H15O4UP   !   .o/o/ch(/ch2/ch2/ch3)/ch2/ch(/o/oh)/ch3
R89C7H15O4UP   !   .o/o/ch(/ch2/ch3)/ch2/ch2/ch(/o/oh)/ch3
R90C7H15O2P   !   .c(/o/oh)(/ch3)/ch2/ch2/ch2/ch2/ch3
R91C3H7O2P   !   .ch2/ch(/o/oh)/ch3
R92C7H15O4UP   !   .o/o/ch(/ch3)/ch2/ch2/ch2/ch(/o/oh)/ch3
R93C4H9O2P   !   .ch2/ch2/ch(/o/oh)/ch3
R94C7H15O4UP   !   .o/o/ch(/ch3)/ch(/o/oh)/ch2/ch2/ch2/ch3
R95C7H15O4UP   !   .o/o/ch2/ch2/ch(/o/oh)/ch2/ch2/ch2/ch3
R96C5H11O2P   !   .ch(/o/oh)/ch2/ch2/ch2/ch3
R97C7H15O4UP   !   .o/o/ch(/ch2/ch2/ch3)/ch(/o/oh)/ch2/ch3
R98C7H15O4UP   !   .o/o/ch(/ch2/ch3)/ch2/ch(/o/oh)/ch2/ch3
R99C3H7O2P   !   .ch(/o/oh)/ch2/ch3
R100C7H15O4UP   !   .o/o/ch(/ch3)/ch2/ch2/ch(/o/oh)/ch2/ch3
R101C7H15O2P   !   .c(/o/oh)(/ch2/ch3)/ch2/ch2/ch2/ch3
R102C4H9O2P   !   .ch2/ch(/o/oh)/ch2/ch3
R103C7H15O4UP   !   .o/o/ch2/ch2/ch2/ch2/ch(/o/oh)/ch2/ch3
R104C5H11O2P   !   .ch2/ch2/ch(/o/oh)/ch2/ch3
R105C4H9O4UP   !   .o/o/ch(/o/oh)/ch2/ch2/ch3
R106C7H15O4UP   !   .o/o/c(/o/oh)(/ch2/ch2/ch3)2
R107C5H11O4UP   !   .o/o/ch2/ch(/o/oh)/ch2/ch2/ch3
R108C5H11O2P   !   .ch(/ch3)/ch2/ch(/o/oh)/ch3
R109C5H11O2P   !   .ch2/ch2/ch2/ch(/o/oh)/ch3
R110C7H15O4UP   !   .o/o/ch(/ch3)/ch2/ch2/ch2/ch2/ch2/o/oh
R111C7H15O4UP   !   .o/o/ch2/ch2/ch2/ch2/ch2/ch2/ch2/o/oh
R112C7H15O4UP   !   .o/o/ch(/o/oh)/ch2/ch2/ch2/ch2/ch2/ch3
R113C5H11O4UP   !   .o/o/ch(/ch2/o/oh)/ch2/ch2/ch3
R114C5H11O4UP   !   .o/o/ch(/ch2/ch3)/ch2/ch2/o/oh
R115C5H11O4UP   !   .o/o/ch(/ch3)/ch2/ch2/ch2/o/oh
R116C5H11O4UP   !   .o/o/ch2/ch2/ch2/ch2/ch2/o/oh
R117C5H11O2P   !   .ch(/ch2/ch3)/ch(/o/oh)/ch3
R118C7H15O4UP   !   .o/o/ch2/ch2/ch2/ch2/ch2/ch(/o/oh)/ch3
R119C7H15O4UP   !   .o/o/c(/o/oh)(/ch3)/ch2/ch2/ch2/ch2/ch3
R120C3H7O4UP   !   .o/o/ch2/ch(/o/oh)/ch3
R121C3H7O2U   !   .o/o/ch(/ch3)2
R122C4H9O4UP   !   .o/o/ch2/ch2/ch(/o/oh)/ch3
R123C4H9O2U   !   .o/o/ch(/ch3)/ch2/ch3
R124C5H11O4UP   !   .o/o/ch(/o/oh)/ch2/ch2/ch2/ch3
R125C3H7O4UP   !   .o/o/ch(/o/oh)/ch2/ch3
R126C7H15O4UP   !   .o/o/c(/o/oh)(/ch2/ch3)/ch2/ch2/ch2/ch3
R127C4H9O4UP   !   .o/o/ch2/ch(/o/oh)/ch2/ch3
R128C5H11O4UP   !   .o/o/ch2/ch2/ch(/o/oh)/ch2/ch3
R129C5H11O2U   !   .o/o/ch(/ch2/ch3)2
R130C5H11O2P   !   .ch(/ch3)/ch(/o/oh)/ch2/ch3
R131C5H11O4UP   !   .o/o/ch(/ch3)/ch2/ch(/o/oh)/ch3
R132C5H11O4UP   !   .o/o/ch2/ch2/ch2/ch(/o/oh)/ch3
R133C5H11O2P   !   .c(/o/oh)(/ch3)/ch2/ch2/ch3
R134C5H11O4UP   !   .o/o/ch(/ch2/ch3)/ch(/o/oh)/ch3
R135C3H7   !   .ch(/ch3)2
R136C4H9O2P   !   .ch(/ch3)/ch(/o/oh)/ch3
R137C4H9   !   .ch(/ch3)/ch2/ch3
R138C5H11   !   .ch(/ch2/ch3)2
R139C5H11O4UP   !   .o/o/ch(/ch3)/ch(/o/oh)/ch2/ch3
R140C5H11O4UP   !   .o/o/c(/o/oh)(/ch3)/ch2/ch2/ch3
R141C4H9O4UP   !   .o/o/ch(/ch3)/ch(/o/oh)/ch3
R142C6H13   !   .ch2/ch2/ch2/ch2/ch2/ch3
 !Cyclic free radicals:
 !Benzenic free radicals:

! lumped Free radicals :
RC3H5Y
RC4H7Y
RC3H5O
RC5H9Y
RC4H7O
RC7H13O
RC5H9O
RC3H5O3
RC6H11O
RC4H7O3
RC7H13O3
RC5H9O3
RC6H11O3
! lumped Cyclic free radicals :
C7H13OE#4
C7H13OE#5
C7H13OE#6
C7H13O3E#4U
C7H13O3E#5U
C7H13O3E#6U
C7H13O3E#4P
C7H13O3E#5P
C7H13O3E#6P
C7H13O5E#4UP
C7H13O5E#5UP
C7H13O5E#6UP

N2
HE
AR
END



REACTIONS
! 853 reactions

!     -----------------
!     PRIMARY REACTIONS
!     -----------------
!   molecular elimination :
!   unimolecular initiations :
C7H16-1=>R19C3H7+R20C4H9    2.0E+0020  0.000  85750.3  ! UI 1 KB
C7H16-1=>R11C2H5+R34C5H11    1.6E+0020  0.000  85815.5  ! UI 2 KB
C7H16-1=>R4CH3+R142C6H13    3.2E+0020  0.000  87654.8  ! UI 3 KB

!   bimolecular initiations :
C7H16-1+O2=>R3OOH+R26C7H15    1.4E+0013  0.000  50652.5  ! BI 4 CN
C7H16-1+O2=>R3OOH+R27C7H15    4.2E+0013  0.000  53033.1  ! BI 5 CN
C7H16-1+O2=>R3OOH+R28C7H15    2.8E+0013  0.000  50588.2  ! BI 6 CN
C7H16-1+O2=>R3OOH+R29C7H15    2.8E+0013  0.000  50652.5  ! BI 7 CN

!   additions :

!   additions with oxygen:
R19C3H7+O2=R30C3H7O2U    9.0E+0018  -2.500  0.0  ! ADO 8 CN
R20C4H9+O2=R31C4H9O2U    9.0E+0018  -2.500  0.0  ! ADO 9 CN
R26C7H15+O2=R32C7H15O2U    1.8E+0019  -2.500  0.0  ! ADO 10 CN
R27C7H15+O2=R33C7H15O2U    9.0E+0018  -2.500  0.0  ! ADO 11 CN
R28C7H15+O2=R35C7H15O2U    1.7E+0019  -2.500  0.0  ! ADO 12 CN
R29C7H15+O2=R36C7H15O2U    1.8E+0019  -2.500  0.0  ! ADO 13 CN
R34C5H11+O2=R49C5H11O2U    9.0E+0018  -2.500  0.0  ! ADO 14 CN
R37C3H7O2P+O2=R62C3H7O4UP    1.7E+0019  -2.500  0.0  ! ADO 15 CN
R38C3H7O2P+O2=R63C3H7O4UP    9.0E+0018  -2.500  0.0  ! ADO 16 CN
R39C4H9O2P+O2=R64C4H9O4UP    1.8E+0019  -2.500  0.0  ! ADO 17 CN
R40C4H9O2P+O2=R65C4H9O4UP    1.7E+0019  -2.500  0.0  ! ADO 18 CN
R41C4H9O2P+O2=R66C4H9O4UP    9.0E+0018  -2.500  0.0  ! ADO 19 CN
R42C7H15O2P+O2=R68C7H15O4UP    1.0E+0019  -2.500  0.0  ! ADO 20 CN
R43C7H15O2P+O2=R69C7H15O4UP    1.7E+0019  -2.500  0.0  ! ADO 21 CN
R44C7H15O2P+O2=R70C7H15O4UP    9.0E+0018  -2.500  0.0  ! ADO 22 CN
R45C7H15O2P+O2=R73C7H15O4UP    1.8E+0019  -2.500  0.0  ! ADO 23 CN
R46C7H15O2P+O2=R76C7H15O4UP    1.8E+0019  -2.500  0.0  ! ADO 24 CN
R47C7H15O2P+O2=R77C7H15O4UP    1.8E+0019  -2.500  0.0  ! ADO 25 CN
R48C7H15O2P+O2=R79C7H15O4UP    1.8E+0019  -2.500  0.0  ! ADO 26 CN
R50C5H11+O2=R84C5H11O2U    1.7E+0019  -2.500  0.0  ! ADO 27 CN
R51C7H15O2P+O2=R85C7H15O4UP    1.5E+0018  -2.500  0.0  ! ADO 28 CN
R52C7H15O2P+O2=R87C7H15O4UP    1.0E+0019  -2.500  0.0  ! ADO 29 CN
R53C7H15O2P+O2=R88C7H15O4UP    1.8E+0019  -2.500  0.0  ! ADO 30 CN
R54C7H15O2P+O2=R89C7H15O4UP    1.8E+0019  -2.500  0.0  ! ADO 31 CN
R55C7H15O2P+O2=R92C7H15O4UP    1.7E+0019  -2.500  0.0  ! ADO 32 CN
R56C7H15O2P+O2=R94C7H15O4UP    9.5E+0018  -2.500  0.0  ! ADO 33 CN
R57C7H15O2P+O2=R95C7H15O4UP    9.0E+0018  -2.500  0.0  ! ADO 34 CN
R58C7H15O2P+O2=R97C7H15O4UP    1.0E+0019  -2.500  0.0  ! ADO 35 CN
R59C7H15O2P+O2=R98C7H15O4UP    1.8E+0019  -2.500  0.0  ! ADO 36 CN
R60C7H15O2P+O2=R100C7H15O4UP    1.7E+0019  -2.500  0.0  ! ADO 37 CN
R61C7H15O2P+O2=R103C7H15O4UP    9.0E+0018  -2.500  0.0  ! ADO 38 CN
R67C4H9O2P+O2=R105C4H9O4UP    1.0E+0019  -2.500  0.0  ! ADO 39 CN
R71C7H15O2P+O2=R106C7H15O4UP    1.9E+0019  -2.500  0.0  ! ADO 40 CN
R72C5H11O2P+O2=R107C5H11O4UP    1.5E+0018  -2.500  0.0  ! ADO 41 CN
R74C7H15O2P+O2=R110C7H15O4UP    1.7E+0019  -2.500  0.0  ! ADO 42 CN
R75C7H15O2P+O2=R111C7H15O4UP    9.0E+0018  -2.500  0.0  ! ADO 43 CN
R78C7H15O2P+O2=R112C7H15O4UP    1.0E+0019  -2.500  0.0  ! ADO 44 CN
R80C5H11O2P+O2=R113C5H11O4UP    1.8E+0019  -2.500  0.0  ! ADO 45 CN
R81C5H11O2P+O2=R114C5H11O4UP    1.8E+0019  -2.500  0.0  ! ADO 46 CN
R82C5H11O2P+O2=R115C5H11O4UP    1.7E+0019  -2.500  0.0  ! ADO 47 CN
R83C5H11O2P+O2=R116C5H11O4UP    9.0E+0018  -2.500  0.0  ! ADO 48 CN
R86C7H15O2P+O2=R118C7H15O4UP    9.0E+0018  -2.500  0.0  ! ADO 49 CN
R90C7H15O2P+O2=R119C7H15O4UP    1.8E+0019  -2.500  0.0  ! ADO 50 CN
R91C3H7O2P+O2=R120C3H7O4UP    1.5E+0018  -2.500  0.0  ! ADO 51 CN
R93C4H9O2P+O2=R122C4H9O4UP    9.0E+0018  -2.500  0.0  ! ADO 52 CN
R96C5H11O2P+O2=R124C5H11O4UP    1.0E+0019  -2.500  0.0  ! ADO 53 CN
R99C3H7O2P+O2=R125C3H7O4UP    1.0E+0019  -2.500  0.0  ! ADO 54 CN
R101C7H15O2P+O2=R126C7H15O4UP    1.9E+0019  -2.500  0.0  ! ADO 55 CN
R102C4H9O2P+O2=R127C4H9O4UP    1.5E+0018  -2.500  0.0  ! ADO 56 CN
R104C5H11O2P+O2=R128C5H11O4UP    9.0E+0018  -2.500  0.0  ! ADO 57 CN
R108C5H11O2P+O2=R131C5H11O4UP    1.7E+0019  -2.500  0.0  ! ADO 58 CN
R109C5H11O2P+O2=R132C5H11O4UP    9.0E+0018  -2.500  0.0  ! ADO 59 CN
R117C5H11O2P+O2=R134C5H11O4UP    1.0E+0019  -2.500  0.0  ! ADO 60 CN
R130C5H11O2P+O2=R139C5H11O4UP    9.5E+0018  -2.500  0.0  ! ADO 61 CN
R133C5H11O2P+O2=R140C5H11O4UP    1.8E+0019  -2.500  0.0  ! ADO 62 CN
R135C3H7+O2=R121C3H7O2U    1.6E+0019  -2.500  0.0  ! ADO 63 CN
R136C4H9O2P+O2=R141C4H9O4UP    9.5E+0018  -2.500  0.0  ! ADO 64 CN
R137C4H9+O2=R123C4H9O2U    1.7E+0019  -2.500  0.0  ! ADO 65 CN
R138C5H11+O2=R129C5H11O2U    1.8E+0019  -2.500  0.0  ! ADO 66 CN

!   isomerisations :
R26C7H15=R27C7H15    1.7E+0009  1.000  19800.0  ! IS 67 KB
R27C7H15=R29C7H15    9.9E+0007  1.000  12000.0  ! IS 68 KB
R27C7H15=R28C7H15    1.7E+0007  1.000  17400.0  ! IS 69 KB
R28C7H15=R29C7H15    5.7E+0008  1.000  17300.0  ! IS 70 KB
R30C3H7O2U=R37C3H7O2P    3.3E+0009  1.000  32500.0  ! IS 71 KB
R30C3H7O2U=R38C3H7O2P    8.6E+0008  1.000  28500.0  ! IS 72 KB
R31C4H9O2U=R39C4H9O2P    3.3E+0009  1.000  32500.0  ! IS 73 KB
R31C4H9O2U=R40C4H9O2P    5.7E+0008  1.000  25500.0  ! IS 74 KB
R31C4H9O2U=R41C4H9O2P    1.5E+0008  1.000  25000.0  ! IS 75 KB
R32C7H15O2U=R42C7H15O2P    6.7E+0009  1.000  32500.0  ! IS 76 KB
R32C7H15O2U=R43C7H15O2P    1.1E+0009  1.000  25500.0  ! IS 77 KB
R32C7H15O2U=R44C7H15O2P    3.0E+0008  1.000  25000.0  ! IS 78 KB
R33C7H15O2U=R45C7H15O2P    3.3E+0009  1.000  32500.0  ! IS 79 KB
R33C7H15O2U=R46C7H15O2P    5.7E+0008  1.000  25500.0  ! IS 80 KB
R33C7H15O2U=R47C7H15O2P    9.9E+0007  1.000  22000.0  ! IS 81 KB
R33C7H15O2U=R48C7H15O2P    1.7E+0007  1.000  21000.0  ! IS 82 KB
R34C5H11=R50C5H11    5.7E+0008  1.000  17300.0  ! IS 83 KB
R35C7H15O2U=R51C7H15O2P    5.0E+0009  1.000  35500.0  ! IS 84 KB
R35C7H15O2U=R52C7H15O2P    3.3E+0009  1.000  32500.0  ! IS 85 KB
R35C7H15O2U=R53C7H15O2P    5.7E+0008  1.000  25500.0  ! IS 86 KB
R35C7H15O2U=R54C7H15O2P    9.9E+0007  1.000  22000.0  ! IS 87 KB
R35C7H15O2U=R55C7H15O2P    1.7E+0007  1.000  21000.0  ! IS 88 KB
R36C7H15O2U=R56C7H15O2P    3.3E+0009  1.000  32500.0  ! IS 89 KB
R36C7H15O2U=R57C7H15O2P    8.6E+0008  1.000  28500.0  ! IS 90 KB
R36C7H15O2U=R58C7H15O2P    3.3E+0009  1.000  32500.0  ! IS 91 KB
R36C7H15O2U=R59C7H15O2P    5.7E+0008  1.000  25500.0  ! IS 92 KB
R36C7H15O2U=R60C7H15O2P    9.9E+0007  1.000  22000.0  ! IS 93 KB
R36C7H15O2U=R61C7H15O2P    2.5E+0007  1.000  24000.0  ! IS 94 KB
R41C4H9O2P=R67C4H9O2P    5.7E+0008  1.000  15300.0  ! IS 95 KB
R42C7H15O2P=R43C7H15O2P    5.7E+0008  1.000  17300.0  ! IS 96 KB
R42C7H15O2P=R44C7H15O2P    1.5E+0008  1.000  14500.0  ! IS 97 KB
R43C7H15O2P=R44C7H15O2P    2.5E+0007  1.000  19900.0  ! IS 98 KB
R44C7H15O2P=R71C7H15O2P    2.9E+0008  1.000  13300.0  ! IS 99 KB
R45C7H15O2P=R48C7H15O2P    5.7E+0008  1.000  17300.0  ! IS 100 KB
R45C7H15O2P=R74C7H15O2P    9.9E+0007  1.000  12000.0  ! IS 101 KB
R45C7H15O2P=R75C7H15O2P    2.5E+0007  1.000  19900.0  ! IS 102 KB
R46C7H15O2P=R74C7H15O2P    5.7E+0008  1.000  17300.0  ! IS 103 KB
R46C7H15O2P=R75C7H15O2P    1.5E+0008  1.000  14500.0  ! IS 104 KB
R47C7H15O2P=R75C7H15O2P    8.6E+0008  1.000  19800.0  ! IS 105 KB
R47C7H15O2P=R78C7H15O2P    5.7E+0008  1.000  15300.0  ! IS 106 KB
R48C7H15O2P=R78C7H15O2P    9.9E+0007  1.000  10000.0  ! IS 107 KB
R49C5H11O2U=R80C5H11O2P    3.3E+0009  1.000  32500.0  ! IS 108 KB
R49C5H11O2U=R81C5H11O2P    5.7E+0008  1.000  25500.0  ! IS 109 KB
R49C5H11O2U=R82C5H11O2P    9.9E+0007  1.000  22000.0  ! IS 110 KB
R49C5H11O2U=R83C5H11O2P    2.5E+0007  1.000  24000.0  ! IS 111 KB
R51C7H15O2P=R53C7H15O2P    5.7E+0008  1.000  17300.0  ! IS 112 KB
R51C7H15O2P=R54C7H15O2P    9.9E+0007  1.000  12000.0  ! IS 113 KB
R51C7H15O2P=R55C7H15O2P    1.7E+0007  1.000  17400.0  ! IS 114 KB
R51C7H15O2P=R86C7H15O2P    4.4E+0006  1.000  23400.0  ! IS 115 KB
R52C7H15O2P=R55C7H15O2P    5.7E+0008  1.000  17300.0  ! IS 116 KB
R52C7H15O2P=R86C7H15O2P    1.5E+0008  1.000  14500.0  ! IS 117 KB
R53C7H15O2P=R86C7H15O2P    8.6E+0008  1.000  19800.0  ! IS 118 KB
R54C7H15O2P=R90C7H15O2P    2.9E+0008  1.000  13300.0  ! IS 119 KB
R55C7H15O2P=R90C7H15O2P    4.9E+0007  1.000  8000.0  ! IS 120 KB
R56C7H15O2P=R59C7H15O2P    5.7E+0008  1.000  17300.0  ! IS 121 KB
R56C7H15O2P=R60C7H15O2P    9.9E+0007  1.000  12000.0  ! IS 122 KB
R56C7H15O2P=R61C7H15O2P    2.5E+0007  1.000  19900.0  ! IS 123 KB
R57C7H15O2P=R58C7H15O2P    5.7E+0008  1.000  17300.0  ! IS 124 KB
R57C7H15O2P=R59C7H15O2P    9.9E+0007  1.000  12000.0  ! IS 125 KB
R57C7H15O2P=R60C7H15O2P    1.7E+0007  1.000  17400.0  ! IS 126 KB
R57C7H15O2P=R61C7H15O2P    4.4E+0006  1.000  23400.0  ! IS 127 KB
R58C7H15O2P=R61C7H15O2P    8.6E+0008  1.000  19800.0  ! IS 128 KB
R60C7H15O2P=R101C7H15O2P    2.9E+0008  1.000  13300.0  ! IS 129 KB
R61C7H15O2P=R101C7H15O2P    4.9E+0007  1.000  8000.0  ! IS 130 KB
R84C5H11O2U=R72C5H11O2P    5.0E+0009  1.000  33500.0  ! IS 131 KB
R72C5H11O2P=R108C5H11O2P    5.7E+0008  1.000  17300.0  ! IS 132 KB
R72C5H11O2P=R109C5H11O2P    1.5E+0008  1.000  14500.0  ! IS 133 KB
R74C7H15O2P=R78C7H15O2P    1.7E+0007  1.000  15400.0  ! IS 134 KB
R75C7H15O2P=R78C7H15O2P    2.9E+0006  1.000  18900.0  ! IS 135 KB
R80C5H11O2P=R83C5H11O2P    8.6E+0008  1.000  19800.0  ! IS 136 KB
R82C5H11O2P=R96C5H11O2P    5.7E+0008  1.000  15300.0  ! IS 137 KB
R83C5H11O2P=R96C5H11O2P    9.9E+0007  1.000  10000.0  ! IS 138 KB
R84C5H11O2U=R117C5H11O2P    3.3E+0009  1.000  32500.0  ! IS 139 KB
R84C5H11O2U=R108C5H11O2P    5.7E+0008  1.000  25500.0  ! IS 140 KB
R84C5H11O2U=R109C5H11O2P    1.5E+0008  1.000  25000.0  ! IS 141 KB
R86C7H15O2P=R90C7H15O2P    8.5E+0006  1.000  13400.0  ! IS 142 KB
R121C3H7O2U=R91C3H7O2P    1.0E+0010  1.000  33500.0  ! IS 143 KB
R123C4H9O2U=R93C4H9O2P    8.6E+0008  1.000  26500.0  ! IS 144 KB
R93C4H9O2P=R102C4H9O2P    8.6E+0008  1.000  19800.0  ! IS 145 KB
R123C4H9O2U=R102C4H9O2P    5.0E+0009  1.000  33500.0  ! IS 146 KB
R129C5H11O2U=R104C5H11O2P    1.7E+0009  1.000  26500.0  ! IS 147 KB
R104C5H11O2P=R130C5H11O2P    5.7E+0008  1.000  17300.0  ! IS 148 KB
R109C5H11O2P=R133C5H11O2P    2.9E+0008  1.000  13300.0  ! IS 149 KB
R123C4H9O2U=R136C4H9O2P    3.3E+0009  1.000  32500.0  ! IS 150 KB
R129C5H11O2U=R130C5H11O2P    6.7E+0009  1.000  32500.0  ! IS 151 KB

!   Decomposition of OOQOOH into branching agents:
R62C3H7O4UP=>R2OH+C3H6O3KP    5.0E+0009  1.000  35500.0  !   152 KB
     DUPLICATE
R62C3H7O4UP=>R2OH+C3H6O3KP    3.3E+0009  1.000  30500.0  !   153 KB
     DUPLICATE
R63C3H7O4UP=>R2OH+C3H6O3KP    3.3E+0009  1.000  32500.0  !   154 KB
     DUPLICATE
R63C3H7O4UP=>R2OH+C3H6O3KP    1.9E+0010  1.000  23500.0  !   155 KB
     DUPLICATE
R64C4H9O4UP=>R2OH+C4H8O3KP    3.3E+0009  1.000  30500.0  !   156 KB
     DUPLICATE
R64C4H9O4UP=>R2OH+C4H8O3KP    3.3E+0009  1.000  32500.0  !   157 KB
     DUPLICATE
R64C4H9O4UP=>R2OH+C4H8O3KP    8.6E+0008  1.000  28500.0  !   158 KB
     DUPLICATE
R65C4H9O4UP=>R2OH+C4H8O3KP    5.0E+0009  1.000  35500.0  !   159 KB
     DUPLICATE
R65C4H9O4UP=>R2OH+C4H8O3KP    3.3E+0009  1.000  32500.0  !   160 KB
     DUPLICATE
R65C4H9O4UP=>R2OH+C4H8O3KP    5.7E+0008  1.000  23500.0  !   161 KB
     DUPLICATE
R66C4H9O4UP=>R2OH+C4H8O3KP    3.3E+0009  1.000  32500.0  !   162 KB
     DUPLICATE
R66C4H9O4UP=>R2OH+C4H8O3KP    3.3E+0009  1.000  25500.0  !   163 KB
     DUPLICATE
R66C4H9O4UP=>R2OH+C4H8O3KP    1.9E+0010  1.000  20000.0  !   164 KB
     DUPLICATE
R68C7H15O4UP=>R2OH+C7H14O3KP    3.3E+0009  1.000  32500.0  !   165 KB
     DUPLICATE
R68C7H15O4UP=>R2OH+C7H14O3KP    8.6E+0008  1.000  28500.0  !   166 KB
     DUPLICATE
R68C7H15O4UP=>R2OH+C7H14O3KP    1.7E+0009  1.000  27500.0  !   167 KB
     DUPLICATE
R68C7H15O4UP=>R2OH+C7H14O3KP    5.7E+0008  1.000  25500.0  !   168 KB
     DUPLICATE
R68C7H15O4UP=>R2OH+C7H14O3KP    9.9E+0007  1.000  22000.0  !   169 KB
     DUPLICATE
R68C7H15O4UP=>R2OH+C7H14O3KP    2.5E+0007  1.000  24000.0  !   170 KB
     DUPLICATE
R69C7H15O4UP=>R2OH+C7H14O3KP    5.0E+0009  1.000  35500.0  !   171 KB
     DUPLICATE
R69C7H15O4UP=>R2OH+C7H14O3KP    3.3E+0009  1.000  32500.0  !   172 KB
     DUPLICATE
R69C7H15O4UP=>R2OH+C7H14O3KP    2.9E+0008  1.000  20500.0  !   173 KB
     DUPLICATE
R69C7H15O4UP=>R2OH+C7H14O3KP    9.9E+0007  1.000  22000.0  !   174 KB
     DUPLICATE
R69C7H15O4UP=>R2OH+C7H14O3KP    1.7E+0007  1.000  21000.0  !   175 KB
     DUPLICATE
R70C7H15O4UP=>R2OH+C7H14O3KP    3.3E+0009  1.000  32500.0  !   176 KB
     DUPLICATE
R70C7H15O4UP=>R2OH+C7H14O3KP    5.7E+0008  1.000  25500.0  !   177 KB
     DUPLICATE
R70C7H15O4UP=>R2OH+C7H14O3KP    4.9E+0007  1.000  17000.0  !   178 KB
     DUPLICATE
R70C7H15O4UP=>R2OH+C7H14O3KP    1.7E+0007  1.000  21000.0  !   179 KB
     DUPLICATE
R73C7H15O4UP=>R2OH+C7H14O3KP    3.3E+0009  1.000  30500.0  !   180 KB
     DUPLICATE
R73C7H15O4UP=>R2OH+C7H14O3KP    3.3E+0009  1.000  32500.0  !   181 KB
     DUPLICATE
R73C7H15O4UP=>R2OH+C7H14O3KP    5.7E+0008  1.000  25500.0  !   182 KB
     DUPLICATE
R73C7H15O4UP=>R2OH+C7H14O3KP    9.9E+0007  1.000  22000.0  !   183 KB
     DUPLICATE
R73C7H15O4UP=>R2OH+C7H14O3KP    1.7E+0007  1.000  21000.0  !   184 KB
     DUPLICATE
R76C7H15O4UP=>R2OH+C7H14O3KP    3.3E+0009  1.000  32500.0  !   185 KB
     DUPLICATE
R76C7H15O4UP=>R2OH+C7H14O3KP    5.7E+0008  1.000  23500.0  !   186 KB
     DUPLICATE
R76C7H15O4UP=>R2OH+C7H14O3KP    3.3E+0009  1.000  32500.0  !   187 KB
     DUPLICATE
R76C7H15O4UP=>R2OH+C7H14O3KP    5.7E+0008  1.000  25500.0  !   188 KB
     DUPLICATE
R76C7H15O4UP=>R2OH+C7H14O3KP    9.9E+0007  1.000  22000.0  !   189 KB
     DUPLICATE
R76C7H15O4UP=>R2OH+C7H14O3KP    2.5E+0007  1.000  24000.0  !   190 KB
     DUPLICATE
R77C7H15O4UP=>R2OH+C7H14O3KP    3.3E+0009  1.000  32500.0  !   191 KB
     DUPLICATE
R77C7H15O4UP=>R2OH+C7H14O3KP    5.7E+0008  1.000  25500.0  !   192 KB
     DUPLICATE
R77C7H15O4UP=>R2OH+C7H14O3KP    1.5E+0008  1.000  25000.0  !   193 KB
     DUPLICATE
R77C7H15O4UP=>R2OH+C7H14O3KP    3.3E+0009  1.000  32500.0  !   194 KB
     DUPLICATE
R77C7H15O4UP=>R2OH+C7H14O3KP    5.7E+0008  1.000  25500.0  !   195 KB
     DUPLICATE
R77C7H15O4UP=>R2OH+C7H14O3KP    9.9E+0007  1.000  20000.0  !   196 KB
     DUPLICATE
R79C7H15O4UP=>R2OH+C7H14O3KP    3.3E+0009  1.000  32500.0  !   197 KB
     DUPLICATE
R79C7H15O4UP=>R2OH+C7H14O3KP    8.6E+0008  1.000  28500.0  !   198 KB
     DUPLICATE
R79C7H15O4UP=>R2OH+C7H14O3KP    3.3E+0009  1.000  32500.0  !   199 KB
     DUPLICATE
R79C7H15O4UP=>R2OH+C7H14O3KP    5.7E+0008  1.000  25500.0  !   200 KB
     DUPLICATE
R79C7H15O4UP=>R2OH+C7H14O3KP    9.9E+0007  1.000  22000.0  !   201 KB
     DUPLICATE
R79C7H15O4UP=>R2OH+C7H14O3KP    1.7E+0007  1.000  19000.0  !   202 KB
     DUPLICATE
R85C7H15O4UP=>R2OH+C7H14O3KP    1.7E+0009  1.000  27500.0  !   203 KB
     DUPLICATE
R85C7H15O4UP=>R2OH+C7H14O3KP    5.7E+0008  1.000  25500.0  !   204 KB
     DUPLICATE
R85C7H15O4UP=>R2OH+C7H14O3KP    9.9E+0007  1.000  22000.0  !   205 KB
     DUPLICATE
R85C7H15O4UP=>R2OH+C7H14O3KP    1.7E+0007  1.000  21000.0  !   206 KB
     DUPLICATE
R87C7H15O4UP=>R2OH+C7H14O3KP    1.7E+0009  1.000  27500.0  !   207 KB
     DUPLICATE
R87C7H15O4UP=>R2OH+C7H14O3KP    8.6E+0008  1.000  28500.0  !   208 KB
     DUPLICATE
R87C7H15O4UP=>R2OH+C7H14O3KP    3.3E+0009  1.000  32500.0  !   209 KB
     DUPLICATE
R87C7H15O4UP=>R2OH+C7H14O3KP    5.7E+0008  1.000  25500.0  !   210 KB
     DUPLICATE
R87C7H15O4UP=>R2OH+C7H14O3KP    9.9E+0007  1.000  22000.0  !   211 KB
     DUPLICATE
R87C7H15O4UP=>R2OH+C7H14O3KP    2.5E+0007  1.000  24000.0  !   212 KB
     DUPLICATE
R88C7H15O4UP=>R2OH+C7H14O3KP    3.3E+0009  1.000  32500.0  !   213 KB
     DUPLICATE
R88C7H15O4UP=>R2OH+C7H14O3KP    5.7E+0008  1.000  25500.0  !   214 KB
     DUPLICATE
R88C7H15O4UP=>R2OH+C7H14O3KP    1.5E+0008  1.000  25000.0  !   215 KB
     DUPLICATE
R88C7H15O4UP=>R2OH+C7H14O3KP    3.3E+0009  1.000  32500.0  !   216 KB
     DUPLICATE
R88C7H15O4UP=>R2OH+C7H14O3KP    2.9E+0008  1.000  20500.0  !   217 KB
     DUPLICATE
R88C7H15O4UP=>R2OH+C7H14O3KP    1.5E+0008  1.000  25000.0  !   218 KB
     DUPLICATE
R89C7H15O4UP=>R2OH+C7H14O3KP    3.3E+0009  1.000  32500.0  !   219 KB
     DUPLICATE
R89C7H15O4UP=>R2OH+C7H14O3KP    8.6E+0008  1.000  28500.0  !   220 KB
     DUPLICATE
R89C7H15O4UP=>R2OH+C7H14O3KP    3.3E+0009  1.000  32500.0  !   221 KB
     DUPLICATE
R89C7H15O4UP=>R2OH+C7H14O3KP    5.7E+0008  1.000  25500.0  !   222 KB
     DUPLICATE
R89C7H15O4UP=>R2OH+C7H14O3KP    4.9E+0007  1.000  17000.0  !   223 KB
     DUPLICATE
R89C7H15O4UP=>R2OH+C7H14O3KP    2.5E+0007  1.000  24000.0  !   224 KB
     DUPLICATE
R92C7H15O4UP=>R2OH+C7H14O3KP    5.0E+0009  1.000  35500.0  !   225 KB
     DUPLICATE
R92C7H15O4UP=>R2OH+C7H14O3KP    3.3E+0009  1.000  32500.0  !   226 KB
     DUPLICATE
R92C7H15O4UP=>R2OH+C7H14O3KP    5.7E+0008  1.000  25500.0  !   227 KB
     DUPLICATE
R92C7H15O4UP=>R2OH+C7H14O3KP    3.3E+0009  1.000  22000.0  !   228 KB
     DUPLICATE
R92C7H15O4UP=>R2OH+C7H14O3KP    9.7E+0009  1.000  16000.0  !   229 KB
     DUPLICATE
R94C7H15O4UP=>R2OH+C7H14O3KP    5.0E+0009  1.000  35500.0  !   230 KB
     DUPLICATE
R94C7H15O4UP=>R2OH+C7H14O3KP    1.7E+0009  1.000  27500.0  !   231 KB
     DUPLICATE
R94C7H15O4UP=>R2OH+C7H14O3KP    5.7E+0008  1.000  25500.0  !   232 KB
     DUPLICATE
R94C7H15O4UP=>R2OH+C7H14O3KP    9.9E+0007  1.000  22000.0  !   233 KB
     DUPLICATE
R94C7H15O4UP=>R2OH+C7H14O3KP    1.7E+0007  1.000  21000.0  !   234 KB
     DUPLICATE
R95C7H15O4UP=>R2OH+C7H14O3KP    3.3E+0009  1.000  32500.0  !   235 KB
     DUPLICATE
R95C7H15O4UP=>R2OH+C7H14O3KP    2.9E+0008  1.000  20500.0  !   236 KB
     DUPLICATE
R95C7H15O4UP=>R2OH+C7H14O3KP    9.9E+0007  1.000  22000.0  !   237 KB
     DUPLICATE
R95C7H15O4UP=>R2OH+C7H14O3KP    1.7E+0007  1.000  21000.0  !   238 KB
     DUPLICATE
R97C7H15O4UP=>R2OH+C7H14O3KP    3.3E+0009  1.000  32500.0  !   239 KB
     DUPLICATE
R97C7H15O4UP=>R2OH+C7H14O3KP    5.7E+0008  1.000  25500.0  !   240 KB
     DUPLICATE
R97C7H15O4UP=>R2OH+C7H14O3KP    1.5E+0008  1.000  25000.0  !   241 KB
     DUPLICATE
R97C7H15O4UP=>R2OH+C7H14O3KP    1.7E+0009  1.000  27500.0  !   242 KB
     DUPLICATE
R97C7H15O4UP=>R2OH+C7H14O3KP    5.7E+0008  1.000  25500.0  !   243 KB
     DUPLICATE
R97C7H15O4UP=>R2OH+C7H14O3KP    1.5E+0008  1.000  25000.0  !   244 KB
     DUPLICATE
R98C7H15O4UP=>R2OH+C7H14O3KP    3.3E+0009  1.000  32500.0  !   245 KB
     DUPLICATE
R98C7H15O4UP=>R2OH+C7H14O3KP    8.6E+0008  1.000  28500.0  !   246 KB
     DUPLICATE
R98C7H15O4UP=>R2OH+C7H14O3KP    3.3E+0009  1.000  32500.0  !   247 KB
     DUPLICATE
R98C7H15O4UP=>R2OH+C7H14O3KP    9.7E+0009  1.000  20500.0  !   248 KB
     DUPLICATE
R98C7H15O4UP=>R2OH+C7H14O3KP    3.3E+0009  1.000  22000.0  !   249 KB
     DUPLICATE
R98C7H15O4UP=>R2OH+C7H14O3KP    8.6E+0008  1.000  24000.0  !   250 KB
     DUPLICATE
R100C7H15O4UP=>R2OH+C7H14O3KP    5.0E+0009  1.000  35500.0  !   251 KB
     DUPLICATE
R100C7H15O4UP=>R2OH+C7H14O3KP    3.3E+0009  1.000  32500.0  !   252 KB
     DUPLICATE
R100C7H15O4UP=>R2OH+C7H14O3KP    5.7E+0008  1.000  25500.0  !   253 KB
     DUPLICATE
R100C7H15O4UP=>R2OH+C7H14O3KP    4.9E+0007  1.000  17000.0  !   254 KB
     DUPLICATE
R100C7H15O4UP=>R2OH+C7H14O3KP    1.7E+0007  1.000  21000.0  !   255 KB
     DUPLICATE
R103C7H15O4UP=>R2OH+C7H14O3KP    3.3E+0009  1.000  32500.0  !   256 KB
     DUPLICATE
R103C7H15O4UP=>R2OH+C7H14O3KP    5.7E+0008  1.000  25500.0  !   257 KB
     DUPLICATE
R103C7H15O4UP=>R2OH+C7H14O3KP    9.9E+0007  1.000  22000.0  !   258 KB
     DUPLICATE
R103C7H15O4UP=>R2OH+C7H14O3KP    8.5E+0006  1.000  16000.0  !   259 KB
     DUPLICATE
R105C4H9O4UP=>R2OH+C4H8O3KP    3.3E+0009  1.000  32500.0  !   260 KB
     DUPLICATE
R105C4H9O4UP=>R2OH+C4H8O3KP    5.7E+0008  1.000  25500.0  !   261 KB
     DUPLICATE
R105C4H9O4UP=>R2OH+C4H8O3KP    1.5E+0008  1.000  25000.0  !   262 KB
     DUPLICATE
R106C7H15O4UP=>R2OH+C7H14O3KP    6.7E+0009  1.000  32500.0  !   263 KB
     DUPLICATE
R106C7H15O4UP=>R2OH+C7H14O3KP    1.1E+0009  1.000  25500.0  !   264 KB
     DUPLICATE
R106C7H15O4UP=>R2OH+C7H14O3KP    3.0E+0008  1.000  25000.0  !   265 KB
     DUPLICATE
R106C7H15O4UP=>R2OH+C7H14O3KP    6.7E+0009  1.000  32500.0  !   266 KB
     DUPLICATE
R106C7H15O4UP=>R2OH+C7H14O3KP    1.1E+0009  1.000  25500.0  !   267 KB
     DUPLICATE
R106C7H15O4UP=>R2OH+C7H14O3KP    3.0E+0008  1.000  25000.0  !   268 KB
     DUPLICATE
R107C5H11O4UP=>R2OH+C5H10O3KP    1.7E+0009  1.000  27500.0  !   269 KB
     DUPLICATE
R107C5H11O4UP=>R2OH+C5H10O3KP    5.7E+0008  1.000  25500.0  !   270 KB
     DUPLICATE
R107C5H11O4UP=>R2OH+C5H10O3KP    9.9E+0007  1.000  22000.0  !   271 KB
     DUPLICATE
R107C5H11O4UP=>R2OH+C5H10O3KP    2.5E+0007  1.000  24000.0  !   272 KB
     DUPLICATE
R110C7H15O4UP=>R2OH+C7H14O3KP    5.0E+0009  1.000  35500.0  !   273 KB
     DUPLICATE
R110C7H15O4UP=>R2OH+C7H14O3KP    3.3E+0009  1.000  32500.0  !   274 KB
     DUPLICATE
R110C7H15O4UP=>R2OH+C7H14O3KP    5.7E+0008  1.000  25500.0  !   275 KB
     DUPLICATE
R110C7H15O4UP=>R2OH+C7H14O3KP    9.9E+0007  1.000  22000.0  !   276 KB
     DUPLICATE
R110C7H15O4UP=>R2OH+C7H14O3KP    1.7E+0007  1.000  21000.0  !   277 KB
     DUPLICATE
R111C7H15O4UP=>R2OH+C7H14O3KP    3.3E+0009  1.000  32500.0  !   278 KB
     DUPLICATE
R111C7H15O4UP=>R2OH+C7H14O3KP    5.7E+0008  1.000  25500.0  !   279 KB
     DUPLICATE
R111C7H15O4UP=>R2OH+C7H14O3KP    9.9E+0007  1.000  22000.0  !   280 KB
     DUPLICATE
R111C7H15O4UP=>R2OH+C7H14O3KP    5.7E+0008  1.000  21000.0  !   281 KB
     DUPLICATE
R112C7H15O4UP=>R2OH+C7H14O3KP    3.3E+0009  1.000  32500.0  !   282 KB
     DUPLICATE
R112C7H15O4UP=>R2OH+C7H14O3KP    5.7E+0008  1.000  25500.0  !   283 KB
     DUPLICATE
R112C7H15O4UP=>R2OH+C7H14O3KP    9.9E+0007  1.000  22000.0  !   284 KB
     DUPLICATE
R112C7H15O4UP=>R2OH+C7H14O3KP    1.7E+0007  1.000  21000.0  !   285 KB
     DUPLICATE
R113C5H11O4UP=>R2OH+C5H10O3KP    3.3E+0009  1.000  30500.0  !   286 KB
     DUPLICATE
R113C5H11O4UP=>R2OH+C5H10O3KP    3.3E+0009  1.000  32500.0  !   287 KB