!Model of the oxidation of methyl palmitate (C17H34O2S-1)

!Olivier Herbinet, Joffrey Biet, Mohammed Hichem Hakka, Valérie Warth, Pierre Al
!Laboratory of Reaction and Process Engineering, Nancy-Université, CNRS UPR-3349
!Jan 2010


ELEMENTS
H O C N HE AR
END
SPECIES
! 4439 especes

! Biradicals :
B1O
B2CO
B3C
B4CH
B5CH2
B6CH2

! Primary molecules :
! Reactants:
C17H34O2S-1
H2
H2O
O2
H2O2
CH4
HCHO
CH3OH
CO2
CH3OOH
C2H2T
C2H4Z
C2H6
CH2COZ
CH3CHO
C2H5OH
C2H5OOH
CH3COOOH
C3H6Y
C3H8
C4H8Y
C4H10
C4H10
C2H5CHO
C3H7OH
C2H6CO
C3H8CO
C4H6Z2
C2H3CHOZ
C3H6O3KP
C4H8O3KP
C17H32O5KPS
C15H28O5KPS
C3H4O5KPS
C4H6O5KPS
C5H8O5KPS
C13H26O3KP
C6H10O5KPS
C12H24O3KP
C7H12O5KPS
C11H22O3KP
C8H14O5KPS
C10H20O3KP
C9H16O5KPS
C9H18O3KP
C10H18O5KPS
C8H16O3KP
C11H20O5KPS
C7H14O3KP
C12H22O5KPS
C6H12O3KP
C13H24O5KPS
C5H10O3KP
C14H26O5KPS
C15H30O3KP
C17H32O2ZS
C4H6O2ZS
C16H30OKZ
C5H8O2ZS
C15H30Z
C6H10O2ZS
C14H28Z
C7H12O2ZS
C13H26Z
C8H14O2ZS
C12H24Z
C9H16O2ZS
C11H22Z
C10H20Z
C10H18O2ZS
C9H18Z
C11H20O2ZS
C8H16Z
C12H22O2ZS
C7H14Z
C13H24O2ZS
C6H12Z
C14H26O2ZS
C5H10Z
C15H28O2ZS
C16H30O2ZS
C17H34O4PS
C3H6O2PZ
C4H8O2PZ
C17H32O4PZS
C5H10O2PZ
C6H12O2PZ
C4H6O4PZS
C5H8O4PZS
C15H30O2PZ
C6H10O4PZS
C7H12O4PZS
C8H14O4PZS
C16H30O3KPZ
C14H28O2PZ
C9H16O4PZS
C13H26O2PZ
C10H18O4PZS
C12H24O2PZ
C11H20O4PZS
C11H22O2PZ
C12H22O4PZS
C10H20O2PZ
C13H24O4PZS
C5H8OKZ
C9H18O2PZ
C14H26O4PZS
C6H10OKZ
C8H16O2PZ
C15H28O4PZS
C7H12OKZ
C7H14O2PZ
C16H30O4PZS
C8H14OKZ
C5H10Y
C4H8OA
C17H32O3AS
C14H26OKZ
C17H32O3KS
C3H4O3AS
C4H6O3AS
C13H26OA
C5H8O3AS
C12H24OA
C6H10O3AS
C3H4O3KPZ
C3H4OKZ
C11H22OA
C7H12O3AS
C4H6O3KPZ
C4H6OKZ
C10H20OA
C8H14O3AS
C5H8O3KPZ
C9H16O3AS
C9H18OA
C6H10O3KPZ
C10H18O3AS
C8H16OA
C11H20O3AS
C7H14OA
C12H22O3AS
C6H12OA
C9H16OKZ
C13H24O3AS
C5H10OA
C10H18OKZ
C14H26O3AS
C11H20OKZ
C15H28O3AS
C4H8O2PY
C12H22OKZ
C3H6O2PY
C13H24OKZ
C15H30OA
C7H12O3KPZ
C8H14O3KPZ
C9H16O3KPZ
C10H18O3KPZ
C11H20O3KPZ
C5H10O2PY
C12H22O3KPZ
C14H26O3KPZ
C15H28O3KS
C6H10O3KS
C7H12O3KS
C8H14O3KS
C9H16O3KS
C4H6O3KS
C5H8O3KS
C13H26OK
C10H18O3KS
C12H24OK
C11H20O3KS
C11H22OK
C12H22O3KS
C10H20OK
C13H24O3KS
C9H18OK
C14H26O3KS
C8H16OK
C7H14OK
C6H12OK
C5H10OK
C13H24O3KPZ
C15H30OK
C3H8O2P
C4H10OL
C5H12
C6H14
C4H10O2P
C15H30O4PS
C13H28O2P
C12H26O2P
C11H24O2P
C3H6O4PS
C10H22O2P
C4H8O4PS
C9H20O2P
C5H10O4PS
C8H18O2P
C6H12O4PS
C7H14O4PS
C7H16O2P
C8H16O4PS
C6H14O2P
C9H18O4PS
C5H12O2P
C10H20O4PS
C11H22O4PS
C12H24O4PS
C13H26O4PS
C14H28O4PS
C15H32O2P

! Secondary molecules :
C3H6Z
C14H28OA
C4H8Z
C3H6OLY
C4H6OAY
C4H8OLY
C6H10Y2
C7H12Y2
C8H14Y2
C5H8OAY
C5H10OLY
C9H16Y2
C6H10OAY
C6H12OLY
C10H18Y2
C15H28O2ZS

! Cyclic primary molecules :
C2H4OE#3
C3H6OE#3
C3H6OE#4
C4H8OE#3
C4H8OE#4
C4H8OE#5
C17H32O3E#3S
C17H32O3E#4S
C17H32O3E#5S
C17H32O3E#6S
C17H32O3ES#5
C17H32O3ES#6
C15H28O3E#3S
C15H28O3E#4S
C15H28O3E#5S
C15H28O3E#6S
C4H6O3E#3S
C5H8O3E#4S
C13H26OE#3
C13H26OE#4
C13H26OE#5
C13H26OE#6
C5H8O3E#3S
C6H10O3E#4S
C12H24OE#3
C12H24OE#4
C12H24OE#5
C12H24OE#6
C6H10O3E#3S
C7H12O3E#4S
C11H22OE#3
C11H22OE#4
C11H22OE#5
C11H22OE#6
C3H4O3ES#5
C7H12O3E#3S
C8H14O3E#4S
C10H20OE#3
C10H20OE#4
C10H20OE#5
C10H20OE#6
C4H6O3ES#6
C8H14O3E#3S
C9H16O3E#4S
C9H18OE#3
C9H18OE#4
C9H18OE#5
C9H18OE#6
C9H16O3E#3S
C10H18O3E#4S
C8H16OE#3
C8H16OE#4
C8H16OE#5
C8H16OE#6
C6H10O3E#5S
C10H18O3E#3S
C11H20O3E#4S
C7H12O3E#5S
C7H12O3E#6S
C7H14OE#3
C7H14OE#4
C7H14OE#5
C7H14OE#6
C11H20O3E#3S
C12H22O3E#4S
C8H14O3E#5S
C8H14O3E#6S
C6H12OE#3
C6H12OE#4
C6H12OE#5
C6H12OE#6
C12H22O3E#3S
C13H24O3E#4S
C9H16O3E#5S
C9H16O3E#6S
C5H10OE#3
C5H10OE#4
C5H10OE#5
C5H10OE#6
C13H24O3E#3S
C14H26O3E#4S
C10H18O3E#5S
C10H18O3E#6S
C14H26O3E#3S
C11H20O3E#5S
C11H20O3E#6S
C12H22O3E#5S
C12H22O3E#6S
C13H24O3E#5S
C13H24O3E#6S
C14H26O3E#5S
C14H26O3E#6S
C15H30OE#3
C15H30OE#4
C15H30OE#5
C15H30OE#6
C4H6O3ES#5
C5H8O3ES#5
C5H8O3ES#6
C6H10O3ES#6
C6H10O3ES#5
C7H12O3ES#6
C7H12O3ES#5
C8H14O3ES#6
C8H14O3ES#5
C9H16O3ES#6
C9H16O3ES#5
C10H18O3ES#6
C15H28O3ES#6
C15H28O3ES#5
C10H18O3ES#5
C11H20O3ES#6
C11H20O3ES#5
C12H22O3ES#6
C12H22O3ES#5
C13H24O3ES#6
C13H24O3ES#5
C14H26O3ES#6
C14H26O3ES#5

! Cyclic secondary molecules :
C14H28OE#3
C17H30O6E#4KPS
C17H30O6E#5KPS
C17H30O6E#6KPS

! Free radicals :
R1H   !   .h
R2OH   !   .oh
R3OOH   !   .o/oh
R4CH3   !   .ch3
R5CHO   !   .ch//o
R6CH2OH   !   .ch2/oh
R7CH3O   !   .o/ch3
R8CH3OO   !   .o/o/ch3
R9C2HT   !   .c///ch
R10C2H3V   !   .ch//ch2
R11C2H5   !   .ch2/ch3
R12CHCOV   !   .ch//c//o
R13CH2CHO   !   .ch2/ch//o
R14CH3CO   !   .c(//o)/ch3
R15C2H5O   !   .o/ch2/ch3
R16C2H4OOH   !   .ch2/ch2/o/oh
R17C2H5OO   !   .o/o/ch2/ch3
R18CH3COOO   !   .o/o/c(//o)/ch3
R19C3H7   !   .ch2/ch2/ch3
R20C4H9   !   .ch2/ch2/ch2/ch3
R21CH3OCO   !   .c(//o)/o/ch3
R22CO2H   !   .c(//o)/oh
R23C2H3O2B   !   .ch2/c(//o)/oh
R24C2H4OH   !   .ch2/ch2/oh
R25C2H4OH   !   .ch(/oh)/ch3
R26C17H33O2S   !   .ch2/ch2/ch2/ch2/ch2/ch2/ch2/ch2/ch2/ch2/ch2/ch2/ch2/ch2/ch2/
R27C17H33O2S   !   .ch2/o/c(//o)/ch2/ch2/ch2/ch2/ch2/ch2/ch2/ch2/ch2/ch2/ch2/ch2
R28C17H33O2S   !   .ch(/c(//o)/o/ch3)/ch2/ch2/ch2/ch2/ch2/ch2/ch2/ch2/ch2/ch2/ch
R29C17H33O2S   !   .ch(/ch2/c(//o)/o/ch3)/ch2/ch2/ch2/ch2/ch2/ch2/ch2/ch2/ch2/ch
R30C17H33O2S   !   .ch(/ch2/ch2/c(//o)/o/ch3)/ch2/ch2/ch2/ch2/ch2/ch2/ch2/ch2/ch
R31C17H33O2S   !   .ch(/ch2/ch2/ch2/c(//o)/o/ch3)/ch2/ch2/ch2/ch2/ch2/ch2/ch2/ch
R32C17H33O2S   !   .ch(/ch2/ch2/ch2/ch2/c(//o)/o/ch3)/ch2/ch2/ch2/ch2/ch2/ch2/ch
R33C17H33O2S   !   .ch(/ch2/ch2/ch2/ch2/ch2/c(//o)/o/ch3)/ch2/ch2/ch2/ch2/ch2/ch
R34C17H33O2S   !   .ch(/ch2/ch2/ch2/ch2/ch2/ch2/ch2/ch3)/ch2/ch2/ch2/ch2/ch2/ch2
R35C17H33O2S   !   .ch(/ch2/ch2/ch2/ch2/ch2/ch2/ch3)/ch2/ch2/ch2/ch2/ch2/ch2/ch2
R36C17H33O2S   !   .ch(/ch2/ch2/ch2/ch2/ch2/ch3)/ch2/ch2/ch2/ch2/ch2/ch2/ch2/ch2
R37C17H33O2S   !   .ch(/ch2/ch2/ch2/ch2/ch3)/ch2/ch2/ch2/ch2/ch2/ch2/ch2/ch2/ch2
R38C17H33O2S   !   .ch(/ch2/ch2/ch2/ch3)/ch2/ch2/ch2/ch2/ch2/ch2/ch2/ch2/ch2/ch2
R39C17H33O2S   !   .ch(/ch2/ch2/ch3)/ch2/ch2/ch2/ch2/ch2/ch2/ch2/ch2/ch2/ch2/ch2
R40C17H33O2S   !   .ch(/ch2/ch3)/ch2/ch2/ch2/ch2/ch2/ch2/ch2/ch2/ch2/ch2/ch2/ch2
R41C17H33O2S   !   .ch(/ch3)/ch2/ch2/ch2/ch2/ch2/ch2/ch2/ch2/ch2/ch2/ch2/ch2/ch2
R42C3H7O2U   !   .o/o/ch2/ch2/ch3
R43C4H9O2U   !   .o/o/ch2/ch2/ch2/ch3
R44C17H33O4US   !   .o/o/ch2/ch2/ch2/ch2/ch2/ch2/ch2/ch2/ch2/ch2/ch2/ch2/ch2/ch2
R45C15H29O2S   !   .ch2/ch2/ch2/ch2/ch2/ch2/ch2/ch2/ch2/ch2/ch2/ch2/ch2/c(//o)/o
R46C17H33O4US   !   .o/o/ch2/o/c(//o)/ch2/ch2/ch2/ch2/ch2/ch2/ch2/ch2/ch2/ch2/ch
R47C16H31OK   !   .c(//o)/ch2/ch2/ch2/ch2/ch2/ch2/ch2/ch2/ch2/ch2/ch2/ch2/ch2/ch
R48C17H33O4US   !   .o/o/ch(/c(//o)/o/ch3)/ch2/ch2/ch2/ch2/ch2/ch2/ch2/ch2/ch2/c
R49C13H27   !   .ch2/ch2/ch2/ch2/ch2/ch2/ch2/ch2/ch2/ch2/ch2/ch2/ch3
R50C17H33O4US   !   .o/o/ch(/ch2/c(//o)/o/ch3)/ch2/ch2/ch2/ch2/ch2/ch2/ch2/ch2/c
R51C12H25   !   .ch2/ch2/ch2/ch2/ch2/ch2/ch2/ch2/ch2/ch2/ch2/ch3
R52C17H33O4US   !   .o/o/ch(/ch2/ch2/c(//o)/o/ch3)/ch2/ch2/ch2/ch2/ch2/ch2/ch2/c
R53C11H23   !   .ch2/ch2/ch2/ch2/ch2/ch2/ch2/ch2/ch2/ch2/ch3
R54C3H5O2S   !   .ch2/c(//o)/o/ch3
R55C17H33O4US   !   .o/o/ch(/ch2/ch2/ch2/c(//o)/o/ch3)/ch2/ch2/ch2/ch2/ch2/ch2/c
R56C10H21   !   .ch2/ch2/ch2/ch2/ch2/ch2/ch2/ch2/ch2/ch3
R57C4H7O2S   !   .ch2/ch2/c(//o)/o/ch3
R58C17H33O4US   !   .o/o/ch(/ch2/ch2/ch2/ch2/c(//o)/o/ch3)/ch2/ch2/ch2/ch2/ch2/c
R59C9H19   !   .ch2/ch2/ch2/ch2/ch2/ch2/ch2/ch2/ch3
R60C5H9O2S   !   .ch2/ch2/ch2/c(//o)/o/ch3
R61C17H33O4US   !   .o/o/ch(/ch2/ch2/ch2/ch2/ch2/c(//o)/o/ch3)/ch2/ch2/ch2/ch2/c
R62C8H17   !   .ch2/ch2/ch2/ch2/ch2/ch2/ch2/ch3
R63C6H11O2S   !   .ch2/ch2/ch2/ch2/c(//o)/o/ch3
R64C17H33O4US   !   .o/o/ch(/ch2/ch2/ch2/ch2/ch2/ch2/ch2/ch3)/ch2/ch2/ch2/ch2/ch
R65C7H13O2S   !   .ch2/ch2/ch2/ch2/ch2/c(//o)/o/ch3
R66C7H15   !   .ch2/ch2/ch2/ch2/ch2/ch2/ch3
R67C17H33O4US   !   .o/o/ch(/ch2/ch2/ch2/ch2/ch2/ch2/ch3)/ch2/ch2/ch2/ch2/ch2/ch
R68C8H15O2S   !   .ch2/ch2/ch2/ch2/ch2/ch2/c(//o)/o/ch3
R69C6H13   !   .ch2/ch2/ch2/ch2/ch2/ch3
R70C17H33O4US   !   .o/o/ch(/ch2/ch2/ch2/ch2/ch2/ch3)/ch2/ch2/ch2/ch2/ch2/ch2/ch
R71C9H17O2S   !   .ch2/ch2/ch2/ch2/ch2/ch2/ch2/c(//o)/o/ch3
R72C5H11   !   .ch2/ch2/ch2/ch2/ch3
R73C17H33O4US   !   .o/o/ch(/ch2/ch2/ch2/ch2/ch3)/ch2/ch2/ch2/ch2/ch2/ch2/ch2/ch
R74C10H19O2S   !   .ch2/ch2/ch2/ch2/ch2/ch2/ch2/ch2/c(//o)/o/ch3
R75C17H33O4US   !   .o/o/ch(/ch2/ch2/ch2/ch3)/ch2/ch2/ch2/ch2/ch2/ch2/ch2/ch2/ch
R76C11H21O2S   !   .ch2/ch2/ch2/ch2/ch2/ch2/ch2/ch2/ch2/c(//o)/o/ch3
R77C17H33O4US   !   .o/o/ch(/ch2/ch2/ch3)/ch2/ch2/ch2/ch2/ch2/ch2/ch2/ch2/ch2/ch
R78C12H23O2S   !   .ch2/ch2/ch2/ch2/ch2/ch2/ch2/ch2/ch2/ch2/c(//o)/o/ch3
R79C17H33O4US   !   .o/o/ch(/ch2/ch3)/ch2/ch2/ch2/ch2/ch2/ch2/ch2/ch2/ch2/ch2/ch
R80C13H25O2S   !   .ch2/ch2/ch2/ch2/ch2/ch2/ch2/ch2/ch2/ch2/ch2/c(//o)/o/ch3
R81C17H33O4US   !   .o/o/ch(/ch3)/ch2/ch2/ch2/ch2/ch2/ch2/ch2/ch2/ch2/ch2/ch2/ch
R82C14H27O2S   !   .ch2/ch2/ch2/ch2/ch2/ch2/ch2/ch2/ch2/ch2/ch2/ch2/c(//o)/o/ch3
R83C3H7O2P   !   .ch(/ch3)/ch2/o/oh
R84C3H7O2P   !   .ch2/ch2/ch2/o/oh
R85C4H9O2P   !   .ch(/ch2/o/oh)/ch2/ch3
R86C4H9O2P   !   .ch(/ch3)/ch2/ch2/o/oh
R87C4H9O2P   !   .ch2/ch2/ch2/ch2/o/oh
R88C17H33O4PS   !   .ch(/ch2/o/oh)/ch2/ch2/ch2/ch2/ch2/ch2/ch2/ch2/ch2/ch2/ch2/c
R89C17H33O4PS   !   .ch(/ch2/ch2/o/oh)/ch2/ch2/ch2/ch2/ch2/ch2/ch2/ch2/ch2/ch2/c
R90C17H33O4PS   !   .ch(/ch2/ch2/ch2/o/oh)/ch2/ch2/ch2/ch2/ch2/ch2/ch2/ch2/ch2/c
R91C17H33O4PS   !   .ch(/ch2/ch2/ch2/ch2/o/oh)/ch2/ch2/ch2/ch2/ch2/ch2/ch2/ch2/c
R92C15H29O4US   !   .o/o/ch2/ch2/ch2/ch2/ch2/ch2/ch2/ch2/ch2/ch2/ch2/ch2/ch2/c(/
R93C15H29O2S   !   .ch(/ch2/ch2/ch3)/ch2/ch2/ch2/ch2/ch2/ch2/ch2/ch2/ch2/c(//o)/
R94C15H29O2S   !   .ch(/ch2/ch2/ch2/ch3)/ch2/ch2/ch2/ch2/ch2/ch2/ch2/ch2/c(//o)/
R95C15H29O2S   !   .ch(/ch2/ch2/ch2/ch2/ch3)/ch2/ch2/ch2/ch2/ch2/ch2/ch2/c(//o)/
R96C15H29O2S   !   .ch(/ch2/ch2/ch2/ch2/ch2/ch3)/ch2/ch2/ch2/ch2/ch2/ch2/c(//o)/
R97C17H33O4PS   !   .ch(/c(//o)/o/ch2/o/oh)/ch2/ch2/ch2/ch2/ch2/ch2/ch2/ch2/ch2/
R98C17H33O4PS   !   .ch(/ch2/c(//o)/o/ch2/o/oh)/ch2/ch2/ch2/ch2/ch2/ch2/ch2/ch2/
R99C15H31   !   .ch2/ch2/ch2/ch2/ch2/ch2/ch2/ch2/ch2/ch2/ch2/ch2/ch2/ch2/ch3
R100C17H33O4PS   !   .ch2/o/c(//o)/ch(/o/oh)/ch2/ch2/ch2/ch2/ch2/ch2/ch2/ch2/ch2
R101C17H33O4PS   !   .ch(/ch(/o/oh)/c(//o)/o/ch3)/ch2/ch2/ch2/ch2/ch2/ch2/ch2/ch
R102C17H33O4PS   !   .ch(/ch2/ch(/o/oh)/c(//o)/o/ch3)/ch2/ch2/ch2/ch2/ch2/ch2/ch
R103C17H33O4PS   !   .ch(/ch2/ch2/ch(/o/oh)/c(//o)/o/ch3)/ch2/ch2/ch2/ch2/ch2/ch
R104C17H33O4PS   !   .ch(/ch2/ch2/ch2/ch(/o/oh)/c(//o)/o/ch3)/ch2/ch2/ch2/ch2/ch
R105C13H27O2U   !   .o/o/ch2/ch2/ch2/ch2/ch2/ch2/ch2/ch2/ch2/ch2/ch2/ch2/ch3
R106C13H27   !   .ch(/ch2/ch2/ch3)/ch2/ch2/ch2/ch2/ch2/ch2/ch2/ch2/ch3
R107C13H27   !   .ch(/ch2/ch2/ch2/ch3)/ch2/ch2/ch2/ch2/ch2/ch2/ch2/ch3
R108C13H27   !   .ch(/ch2/ch2/ch2/ch2/ch3)/ch2/ch2/ch2/ch2/ch2/ch2/ch3
R109C13H27   !   .ch(/ch2/ch2/ch2/ch2/ch2/ch3)2
R110C17H33O4PS   !   .ch(/c(//o)/o/ch3)/ch(/o/oh)/ch2/ch2/ch2/ch2/ch2/ch2/ch2/ch
R111C17H33O4PS   !   .ch2/o/c(//o)/ch2/ch(/o/oh)/ch2/ch2/ch2/ch2/ch2/ch2/ch2/ch2
R112C17H33O4PS   !   .ch(/ch(/o/oh)/ch2/c(//o)/o/ch3)/ch2/ch2/ch2/ch2/ch2/ch2/ch
R113C17H33O4PS   !   .ch(/ch2/ch(/o/oh)/ch2/c(//o)/o/ch3)/ch2/ch2/ch2/ch2/ch2/ch
R114C17H33O4PS   !   .ch(/ch2/ch2/ch(/o/oh)/ch2/c(//o)/o/ch3)/ch2/ch2/ch2/ch2/ch
R115C17H33O4PS   !   .ch(/ch2/ch2/ch2/ch(/o/oh)/ch2/c(//o)/o/ch3)/ch2/ch2/ch2/ch
R116C12H25O2U   !   .o/o/ch2/ch2/ch2/ch2/ch2/ch2/ch2/ch2/ch2/ch2/ch2/ch3
R117C12H25   !   .ch(/ch2/ch2/ch3)/ch2/ch2/ch2/ch2/ch2/ch2/ch2/ch3
R118C12H25   !   .ch(/ch2/ch2/ch2/ch3)/ch2/ch2/ch2/ch2/ch2/ch2/ch3
R119C12H25   !   .ch(/ch2/ch2/ch2/ch2/ch3)/ch2/ch2/ch2/ch2/ch2/ch3
R120C17H33O4PS   !   .ch(/ch2/c(//o)/o/ch3)/ch(/o/oh)/ch2/ch2/ch2/ch2/ch2/ch2/ch
R121C17H33O4PS   !   .ch(/c(//o)/o/ch3)/ch2/ch(/o/oh)/ch2/ch2/ch2/ch2/ch2/ch2/ch
R122C17H33O4PS   !   .ch(/ch(/o/oh)/ch2/ch2/c(//o)/o/ch3)/ch2/ch2/ch2/ch2/ch2/ch
R123C17H33O4PS   !   .ch(/ch2/ch(/o/oh)/ch2/ch2/c(//o)/o/ch3)/ch2/ch2/ch2/ch2/ch
R124C17H33O4PS   !   .ch(/ch2/ch2/ch(/o/oh)/ch2/ch2/c(//o)/o/ch3)/ch2/ch2/ch2/ch
R125C17H33O4PS   !   .ch(/ch2/ch2/ch2/ch2/ch2/ch2/ch2/ch3)/ch2/ch2/ch2/ch(/o/oh)
R126C11H23O2U   !   .o/o/ch2/ch2/ch2/ch2/ch2/ch2/ch2/ch2/ch2/ch2/ch3
R127C11H23   !   .ch(/ch2/ch2/ch3)/ch2/ch2/ch2/ch2/ch2/ch2/ch3
R128C11H23   !   .ch(/ch2/ch2/ch2/ch3)/ch2/ch2/ch2/ch2/ch2/ch3
R129C11H23   !   .ch(/ch2/ch2/ch2/ch2/ch3)2
R130C3H5O4US   !   .o/o/ch2/c(//o)/o/ch3
R131C3H5O2S   !   .ch2/o/c(//o)/ch3
R132C17H33O4PS   !   .ch(/ch2/ch2/c(//o)/o/ch3)/ch(/o/oh)/ch2/ch2/ch2/ch2/ch2/ch
R133C17H33O4PS   !   .ch(/ch2/c(//o)/o/ch3)/ch2/ch(/o/oh)/ch2/ch2/ch2/ch2/ch2/ch
R134C17H33O4PS   !   .ch(/c(//o)/o/ch3)/ch2/ch2/ch(/o/oh)/ch2/ch2/ch2/ch2/ch2/ch
R135C17H33O4PS   !   .ch(/ch(/o/oh)/ch2/ch2/ch2/c(//o)/o/ch3)/ch2/ch2/ch2/ch2/ch
R136C17H33O4PS   !   .ch(/ch2/ch(/o/oh)/ch2/ch2/ch2/c(//o)/o/ch3)/ch2/ch2/ch2/ch
R137C17H33O4PS   !   .ch(/ch2/ch2/ch2/ch2/ch2/ch2/ch2/ch3)/ch2/ch2/ch(/o/oh)/ch2
R138C17H33O4PS   !   .ch(/ch2/ch2/ch2/ch2/ch2/ch2/ch3)/ch2/ch2/ch2/ch(/o/oh)/ch2
R139C10H21O2U   !   .o/o/ch2/ch2/ch2/ch2/ch2/ch2/ch2/ch2/ch2/ch3
R140C10H21   !   .ch(/ch2/ch2/ch3)/ch2/ch2/ch2/ch2/ch2/ch3
R141C10H21   !   .ch(/ch2/ch2/ch2/ch3)/ch2/ch2/ch2/ch2/ch3
R142C4H7O4US   !   .o/o/ch2/ch2/c(//o)/o/ch3
R143C4H7O2S   !   .ch2/o/c(//o)/ch2/ch3
R144C17H33O4PS   !   .ch(/ch2/ch2/ch2/c(//o)/o/ch3)/ch(/o/oh)/ch2/ch2/ch2/ch2/ch
R145C17H33O4PS   !   .ch(/ch2/ch2/c(//o)/o/ch3)/ch2/ch(/o/oh)/ch2/ch2/ch2/ch2/ch
R146C17H33O4PS   !   .ch(/ch2/c(//o)/o/ch3)/ch2/ch2/ch(/o/oh)/ch2/ch2/ch2/ch2/ch
R147C17H33O4PS   !   .ch(/c(//o)/o/ch3)/ch2/ch2/ch2/ch(/o/oh)/ch2/ch2/ch2/ch2/ch
R148C17H33O4PS   !   .ch(/ch(/o/oh)/ch2/ch2/ch2/ch2/c(//o)/o/ch3)/ch2/ch2/ch2/ch
R149C17H33O4PS   !   .ch(/ch2/ch2/ch2/ch2/ch2/ch2/ch2/ch3)/ch2/ch(/o/oh)/ch2/ch2
R150C17H33O4PS   !   .ch(/ch2/ch2/ch2/ch2/ch2/ch2/ch3)/ch2/ch2/ch(/o/oh)/ch2/ch2
R151C17H33O4PS   !   .ch(/ch2/ch2/ch2/ch2/ch2/ch3)/ch2/ch2/ch2/ch(/o/oh)/ch2/ch2
R152C9H19O2U   !   .o/o/ch2/ch2/ch2/ch2/ch2/ch2/ch2/ch2/ch3
R153C9H19   !   .ch(/ch2/ch2/ch3)/ch2/ch2/ch2/ch2/ch3
R154C9H19   !   .ch(/ch2/ch2/ch2/ch3)2
R155C9H19   !   .ch(/ch2/ch3)/ch2/ch2/ch2/ch2/ch2/ch3
R156C5H9O4US   !   .o/o/ch2/ch2/ch2/c(//o)/o/ch3
R157C5H9O2S   !   .ch2/o/c(//o)/ch2/ch2/ch3
R158C17H33O4PS   !   .ch(/ch2/ch2/ch2/ch2/c(//o)/o/ch3)/ch(/o/oh)/ch2/ch2/ch2/ch
R159C17H33O4PS   !   .ch(/ch2/ch2/ch2/c(//o)/o/ch3)/ch2/ch(/o/oh)/ch2/ch2/ch2/ch
R160C17H33O4PS   !   .ch(/ch2/ch2/c(//o)/o/ch3)/ch2/ch2/ch(/o/oh)/ch2/ch2/ch2/ch
R161C17H33O4PS   !   .ch(/ch2/c(//o)/o/ch3)/ch2/ch2/ch2/ch(/o/oh)/ch2/ch2/ch2/ch
R162C17H33O4PS   !   .ch(/ch2/ch2/ch2/ch2/ch2/ch2/ch2/ch3)/ch(/o/oh)/ch2/ch2/ch2
R163C17H33O4PS   !   .ch(/ch2/ch2/ch2/ch2/ch2/ch2/ch3)/ch2/ch(/o/oh)/ch2/ch2/ch2
R164C17H33O4PS   !   .ch(/ch2/ch2/ch2/ch2/ch2/ch3)/ch2/ch2/ch(/o/oh)/ch2/ch2/ch2
R165C17H33O4PS   !   .ch(/ch2/ch2/ch2/ch2/ch3)/ch2/ch2/ch2/ch(/o/oh)/ch2/ch2/ch2
R166C8H17O2U   !   .o/o/ch2/ch2/ch2/ch2/ch2/ch2/ch2/ch3
R167C8H17   !   .ch(/ch2/ch2/ch3)/ch2/ch2/ch2/ch3
R168C8H17   !   .ch(/ch2/ch3)/ch2/ch2/ch2/ch2/ch3
R169C8H17   !   .ch(/ch3)/ch2/ch2/ch2/ch2/ch2/ch3
R170C6H11O4US   !   .o/o/ch2/ch2/ch2/ch2/c(//o)/o/ch3
R171C6H11O2S   !   .ch(/c(//o)/o/ch3)/ch2/ch2/ch3
R172C6H11O2S   !   .ch2/o/c(//o)/ch2/ch2/ch2/ch3
R173C17H33O4PS   !   .ch(/ch2/ch2/ch2/ch2/ch2/ch2/ch3)/ch(/o/oh)/ch2/ch2/ch2/ch2
R174C17H33O4PS   !   .ch(/ch2/ch2/ch2/ch2/ch2/ch3)/ch2/ch(/o/oh)/ch2/ch2/ch2/ch2
R175C17H33O4PS   !   .ch(/ch2/ch2/ch2/ch2/ch3)/ch2/ch2/ch(/o/oh)/ch2/ch2/ch2/ch2
R176C17H33O4PS   !   .ch(/ch2/ch2/ch2/ch3)/ch2/ch2/ch2/ch(/o/oh)/ch2/ch2/ch2/ch2
R177C17H33O4PS   !   .ch(/ch2/ch2/ch2/ch2/ch2/c(//o)/o/ch3)/ch(/o/oh)/ch2/ch2/ch
R178C17H33O4PS   !   .ch(/ch2/ch2/ch2/ch2/c(//o)/o/ch3)/ch2/ch(/o/oh)/ch2/ch2/ch
R179C17H33O4PS   !   .ch(/ch2/ch2/ch2/c(//o)/o/ch3)/ch2/ch2/ch(/o/oh)/ch2/ch2/ch
R180C17H33O4PS   !   .ch(/ch2/ch2/c(//o)/o/ch3)/ch2/ch2/ch2/ch(/o/oh)/ch2/ch2/ch
R181C7H13O4US   !   .o/o/ch2/ch2/ch2/ch2/ch2/c(//o)/o/ch3
R182C7H13O2S   !   .ch(/ch2/ch2/ch3)/ch2/c(//o)/o/ch3
R183C7H13O2S   !   .ch(/c(//o)/o/ch3)/ch2/ch2/ch2/ch3
R184C7H15O2U   !   .o/o/ch2/ch2/ch2/ch2/ch2/ch2/ch3
R185C7H15   !   .ch(/ch2/ch2/ch3)2
R186C7H15   !   .ch(/ch2/ch3)/ch2/ch2/ch2/ch3
R187C7H15   !   .ch(/ch3)/ch2/ch2/ch2/ch2/ch3
R188C17H33O4PS   !   .ch(/ch2/ch2/ch2/ch2/ch2/ch3)/ch(/o/oh)/ch2/ch2/ch2/ch2/ch2
R189C17H33O4PS   !   .ch(/ch2/ch2/ch2/ch2/ch3)/ch2/ch(/o/oh)/ch2/ch2/ch2/ch2/ch2
R190C17H33O4PS   !   .ch(/ch2/ch2/ch2/ch3)/ch2/ch2/ch(/o/oh)/ch2/ch2/ch2/ch2/ch2
R191C17H33O4PS   !   .ch(/ch2/ch2/ch3)/ch2/ch2/ch2/ch(/o/oh)/ch2/ch2/ch2/ch2/ch2
R192C17H33O4PS   !   .ch(/ch(/o/oh)/ch2/ch2/ch2/ch2/ch2/ch2/ch3)/ch2/ch2/ch2/ch2
R193C17H33O4PS   !   .ch(/ch2/ch2/ch2/ch2/ch2/c(//o)/o/ch3)/ch2/ch(/o/oh)/ch2/ch
R194C17H33O4PS   !   .ch(/ch2/ch2/ch2/ch2/c(//o)/o/ch3)/ch2/ch2/ch(/o/oh)/ch2/ch
R195C17H33O4PS   !   .ch(/ch2/ch2/ch2/c(//o)/o/ch3)/ch2/ch2/ch2/ch(/o/oh)/ch2/ch
R196C8H15O4US   !   .o/o/ch2/ch2/ch2/ch2/ch2/ch2/c(//o)/o/ch3
R197C8H15O2S   !   .ch(/ch2/ch2/ch3)/ch2/ch2/c(//o)/o/ch3
R198C8H15O2S   !   .ch(/ch2/c(//o)/o/ch3)/ch2/ch2/ch2/ch3
R199C8H15O2S   !   .ch(/c(//o)/o/ch3)/ch2/ch2/ch2/ch2/ch3
R200C6H13O2U   !   .o/o/ch2/ch2/ch2/ch2/ch2/ch3
R201C6H13   !   .ch(/ch2/ch3)/ch2/ch2/ch3
R202C6H13   !   .ch(/ch3)/ch2/ch2/ch2/ch3
R203C17H33O4PS   !   .ch(/ch2/ch2/ch2/ch2/ch3)/ch(/o/oh)/ch2/ch2/ch2/ch2/ch2/ch2
R204C17H33O4PS   !   .ch(/ch2/ch2/ch2/ch3)/ch2/ch(/o/oh)/ch2/ch2/ch2/ch2/ch2/ch2
R205C17H33O4PS   !   .ch(/ch2/ch2/ch3)/ch2/ch2/ch(/o/oh)/ch2/ch2/ch2/ch2/ch2/ch2
R206C17H33O4PS   !   .ch(/ch2/ch3)/ch2/ch2/ch2/ch(/o/oh)/ch2/ch2/ch2/ch2/ch2/ch2
R207C17H33O4PS   !   .ch(/ch(/o/oh)/ch2/ch2/ch2/ch2/ch2/ch3)/ch2/ch2/ch2/ch2/ch2
R208C17H33O4PS   !   .ch(/ch2/ch(/o/oh)/ch2/ch2/ch2/ch2/ch2/ch3)/ch2/ch2/ch2/ch2
R209C17H33O4PS   !   .ch(/ch2/ch2/ch2/ch2/ch2/c(//o)/o/ch3)/ch2/ch2/ch(/o/oh)/ch
R210C17H33O4PS   !   .ch(/ch2/ch2/ch2/ch2/c(//o)/o/ch3)/ch2/ch2/ch2/ch(/o/oh)/ch
R211C9H17O4US   !   .o/o/ch2/ch2/ch2/ch2/ch2/ch2/ch2/c(//o)/o/ch3
R212C9H17O2S   !   .ch(/ch2/ch2/ch3)/ch2/ch2/ch2/c(//o)/o/ch3
R213C9H17O2S   !   .ch(/ch2/ch2/ch2/ch3)/ch2/ch2/c(//o)/o/ch3
R214C9H17O2S   !   .ch(/ch2/c(//o)/o/ch3)/ch2/ch2/ch2/ch2/ch3
R215C9H17O2S   !   .ch(/c(//o)/o/ch3)/ch2/ch2/ch2/ch2/ch2/ch3
R216C5H11O2U   !   .o/o/ch2/ch2/ch2/ch2/ch3
R217C5H11   !   .ch(/ch3)/ch2/ch2/ch3
R218C17H33O4PS   !   .ch(/ch2/ch2/ch2/ch3)/ch(/o/oh)/ch2/ch2/ch2/ch2/ch2/ch2/ch2
R219C17H33O4PS   !   .ch(/ch2/ch2/ch3)/ch2/ch(/o/oh)/ch2/ch2/ch2/ch2/ch2/ch2/ch2
R220C17H33O4PS   !   .ch(/ch2/ch3)/ch2/ch2/ch(/o/oh)/ch2/ch2/ch2/ch2/ch2/ch2/ch2
R221C17H33O4PS   !   .ch(/ch3)/ch2/ch2/ch2/ch(/o/oh)/ch2/ch2/ch2/ch2/ch2/ch2/ch2
R222C17H33O4PS   !   .ch(/ch(/o/oh)/ch2/ch2/ch2/ch2/ch3)/ch2/ch2/ch2/ch2/ch2/ch2
R223C17H33O4PS   !   .ch(/ch2/ch(/o/oh)/ch2/ch2/ch2/ch2/ch3)/ch2/ch2/ch2/ch2/ch2
R224C17H33O4PS   !   .ch(/ch2/ch2/ch(/o/oh)/ch2/ch2/ch2/ch2/ch3)/ch2/ch2/ch2/ch2
R225C17H33O4PS   !   .ch(/ch2/ch2/ch2/ch2/ch2/c(//o)/o/ch3)/ch2/ch2/ch2/ch(/o/oh
R226C10H19O4US   !   .o/o/ch2/ch2/ch2/ch2/ch2/ch2/ch2/ch2/c(//o)/o/ch3
R227C10H19O2S   !   .ch(/ch2/ch2/ch3)/ch2/ch2/ch2/ch2/c(//o)/o/ch3
R228C10H19O2S   !   .ch(/ch2/ch2/ch2/ch3)/ch2/ch2/ch2/c(//o)/o/ch3
R229C10H19O2S   !   .ch(/ch2/ch2/c(//o)/o/ch3)/ch2/ch2/ch2/ch2/ch3
R230C10H19O2S   !   .ch(/ch2/c(//o)/o/ch3)/ch2/ch2/ch2/ch2/ch2/ch3
R231C17H33O4PS   !   .ch(/ch2/ch2/ch3)/ch(/o/oh)/ch2/ch2/ch2/ch2/ch2/ch2/ch2/ch2
R232C17H33O4PS   !   .ch(/ch2/ch3)/ch2/ch(/o/oh)/ch2/ch2/ch2/ch2/ch2/ch2/ch2/ch2
R233C17H33O4PS   !   .ch(/ch3)/ch2/ch2/ch(/o/oh)/ch2/ch2/ch2/ch2/ch2/ch2/ch2/ch2
R234C17H33O4PS   !   .ch2/ch2/ch2/ch2/ch(/o/oh)/ch2/ch2/ch2/ch2/ch2/ch2/ch2/ch2/
R235C17H33O4PS   !   .ch(/ch(/o/oh)/ch2/ch2/ch2/ch3)/ch2/ch2/ch2/ch2/ch2/ch2/ch2
R236C17H33O4PS   !   .ch(/ch2/ch(/o/oh)/ch2/ch2/ch2/ch3)/ch2/ch2/ch2/ch2/ch2/ch2
R237C17H33O4PS   !   .ch(/ch2/ch2/ch(/o/oh)/ch2/ch2/ch2/ch3)/ch2/ch2/ch2/ch2/ch2
R238C17H33O4PS   !   .ch(/ch2/ch2/ch2/ch(/o/oh)/ch2/ch2/ch2/ch3)/ch2/ch2/ch2/ch2
R239C11H21O4US   !   .o/o/ch2/ch2/ch2/ch2/ch2/ch2/ch2/ch2/ch2/c(//o)/o/ch3
R240C11H21O2S   !   .ch(/ch2/ch2/ch3)/ch2/ch2/ch2/ch2/ch2/c(//o)/o/ch3
R241C11H21O2S   !   .ch(/ch2/ch2/ch2/ch3)/ch2/ch2/ch2/ch2/c(//o)/o/ch3
R242C11H21O2S   !   .ch(/ch2/ch2/ch2/ch2/ch3)/ch2/ch2/ch2/c(//o)/o/ch3
R243C11H21O2S   !   .ch(/ch2/ch2/c(//o)/o/ch3)/ch2/ch2/ch2/ch2/ch2/ch3
R244C17H33O4PS   !   .ch(/ch2/ch3)/ch(/o/oh)/ch2/ch2/ch2/ch2/ch2/ch2/ch2/ch2/ch2
R245C17H33O4PS   !   .ch(/ch3)/ch2/ch(/o/oh)/ch2/ch2/ch2/ch2/ch2/ch2/ch2/ch2/ch2
R246C17H33O4PS   !   .ch2/ch2/ch2/ch(/o/oh)/ch2/ch2/ch2/ch2/ch2/ch2/ch2/ch2/ch2/
R247C17H33O4PS   !   .ch(/ch(/o/oh)/ch2/ch2/ch3)/ch2/ch2/ch2/ch2/ch2/ch2/ch2/ch2
R248C17H33O4PS   !   .ch(/ch2/ch(/o/oh)/ch2/ch2/ch3)/ch2/ch2/ch2/ch2/ch2/ch2/ch2
R249C17H33O4PS   !   .ch(/ch2/ch2/ch(/o/oh)/ch2/ch2/ch3)/ch2/ch2/ch2/ch2/ch2/ch2
R250C17H33O4PS   !   .ch(/ch2/ch2/ch2/ch(/o/oh)/ch2/ch2/ch3)/ch2/ch2/ch2/ch2/ch2
R251C12H23O4US   !   .o/o/ch2/ch2/ch2/ch2/ch2/ch2/ch2/ch2/ch2/ch2/c(//o)/o/ch3
R252C12H23O2S   !   .ch(/ch2/ch2/ch3)/ch2/ch2/ch2/ch2/ch2/ch2/c(//o)/o/ch3
R253C12H23O2S   !   .ch(/ch2/ch2/ch2/ch3)/ch2/ch2/ch2/ch2/ch2/c(//o)/o/ch3
R254C12H23O2S   !   .ch(/ch2/ch2/ch2/ch2/ch3)/ch2/ch2/ch2/ch2/c(//o)/o/ch3
R255C12H23O2S   !   .ch(/ch2/ch2/ch2/c(//o)/o/ch3)/ch2/ch2/ch2/ch2/ch2/ch3
R256C17H33O4PS   !   .ch(/ch3)/ch(/o/oh)/ch2/ch2/ch2/ch2/ch2/ch2/ch2/ch2/ch2/ch2
R257C17H33O4PS   !   .ch2/ch2/ch(/o/oh)/ch2/ch2/ch2/ch2/ch2/ch2/ch2/ch2/ch2/ch2/
R258C17H33O4PS   !   .ch(/ch(/o/oh)/ch2/ch3)/ch2/ch2/ch2/ch2/ch2/ch2/ch2/ch2/ch2
R259C17H33O4PS   !   .ch(/ch2/ch(/o/oh)/ch2/ch3)/ch2/ch2/ch2/ch2/ch2/ch2/ch2/ch2
R260C17H33O4PS   !   .ch(/ch2/ch2/ch(/o/oh)/ch2/ch3)/ch2/ch2/ch2/ch2/ch2/ch2/ch2
R261C17H33O4PS   !   .ch(/ch2/ch2/ch2/ch(/o/oh)/ch2/ch3)/ch2/ch2/ch2/ch2/ch2/ch2
R262C13H25O4US   !   .o/o/ch2/ch2/ch2/ch2/ch2/ch2/ch2/ch2/ch2/ch2/ch2/c(//o)/o/c
R263C13H25O2S   !   .ch(/ch2/ch2/ch3)/ch2/ch2/ch2/ch2/ch2/ch2/ch2/c(//o)/o/ch3
R264C13H25O2S   !   .ch(/ch2/ch2/ch2/ch3)/ch2/ch2/ch2/ch2/ch2/ch2/c(//o)/o/ch3
R265C13H25O2S   !   .ch(/ch2/ch2/ch2/ch2/ch3)/ch2/ch2/ch2/ch2/ch2/c(//o)/o/ch3
R266C13H25O2S   !   .ch(/ch2/ch2/ch2/ch2/ch2/ch3)/ch2/ch2/ch2/ch2/c(//o)/o/ch3
R267C17H33O4PS   !   .ch2/ch(/o/oh)/ch2/ch2/ch2/ch2/ch2/ch2/ch2/ch2/ch2/ch2/ch2/
R268C17H33O4PS   !   .ch(/ch(/o/oh)/ch3)/ch2/ch2/ch2/ch2/ch2/ch2/ch2/ch2/ch2/ch2
R269C17H33O4PS   !   .ch(/ch2/ch(/o/oh)/ch3)/ch2/ch2/ch2/ch2/ch2/ch2/ch2/ch2/ch2
R270C17H33O4PS   !   .ch(/ch2/ch2/ch(/o/oh)/ch3)/ch2/ch2/ch2/ch2/ch2/ch2/ch2/ch2
R271C17H33O4PS   !   .ch(/ch2/ch2/ch2/ch(/o/oh)/ch3)/ch2/ch2/ch2/ch2/ch2/ch2/ch2
R272C14H27O4US   !   .o/o/ch2/ch2/ch2/ch2/ch2/ch2/ch2/ch2/ch2/ch2/ch2/ch2/c(//o)
R273C14H27O2S   !   .ch(/ch2/ch2/ch3)/ch2/ch2/ch2/ch2/ch2/ch2/ch2/ch2/c(//o)/o/c
R274C14H27O2S   !   .ch(/ch2/ch2/ch2/ch3)/ch2/ch2/ch2/ch2/ch2/ch2/ch2/c(//o)/o/c
R275C14H27O2S   !   .ch(/ch2/ch2/ch2/ch2/ch3)/ch2/ch2/ch2/ch2/ch2/ch2/c(//o)/o/c
R276C14H27O2S   !   .ch(/ch2/ch2/ch2/ch2/ch2/ch3)/ch2/ch2/ch2/ch2/ch2/c(//o)/o/c
R277C3H7O4UP   !   .o/o/ch(/ch3)/ch2/o/oh
R278C3H7O4UP   !   .o/o/ch2/ch2/ch2/o/oh
R279C4H9O4UP   !   .o/o/ch(/ch2/o/oh)/ch2/ch3
R280C4H9O4UP   !   .o/o/ch(/ch3)/ch2/ch2/o/oh
R281C4H9O4UP   !   .o/o/ch2/ch2/ch2/ch2/o/oh
R282C4H9O2P   !   .ch(/o/oh)/ch2/ch2/ch3
R283C17H33O6UPS   !   .o/o/ch(/ch2/o/oh)/ch2/ch2/ch2/ch2/ch2/ch2/ch2/ch2/ch2/ch2
R284C17H33O4PS   !   .ch(/ch2/ch2/ch2/ch2/ch2/o/oh)/ch2/ch2/ch2/ch2/ch2/ch2/ch2/
R285C17H33O4PS   !   .ch(/ch2/ch2/ch2/ch2/ch2/ch2/o/oh)/ch2/ch2/ch2/ch2/ch2/ch2/
R286C17H33O4PS   !   .ch(/ch2/ch2/ch2/ch2/ch2/ch2/ch2/o/oh)/ch2/ch2/ch2/ch2/ch2/
R287C17H33O6UPS   !   .o/o/ch(/ch2/ch2/o/oh)/ch2/ch2/ch2/ch2/ch2/ch2/ch2/ch2/ch2
R288C17H33O4PS   !   .ch(/ch2/ch2/ch2/ch2/ch2/ch2/ch2/ch2/o/oh)/ch2/ch2/ch2/ch2/
R289C17H33O6UPS   !   .o/o/ch(/ch2/ch2/ch2/o/oh)/ch2/ch2/ch2/ch2/ch2/ch2/ch2/ch2
R290C17H33O4PS   !   .ch(/o/oh)/ch2/ch2/ch2/ch2/ch2/ch2/ch2/ch2/ch2/ch2/ch2/ch2/
R291C17H33O4PS   !   .ch(/ch2/ch2/ch2/ch2/ch2/c(//o)/o/ch3)/ch2/ch2/ch2/ch2/ch2/
R292C17H33O6UPS   !   .o/o/ch(/ch2/ch2/ch2/ch2/o/oh)/ch2/ch2/ch2/ch2/ch2/ch2/ch2
R293C17H33O4PS   !   .ch(/ch2/ch2/ch2/ch2/c(//o)/o/ch3)/ch2/ch2/ch2/ch2/ch2/ch2/
R294C15H29O4PS   !   .ch(/ch2/o/oh)/ch2/ch2/ch2/ch2/ch2/ch2/ch2/ch2/ch2/ch2/ch2/
R295C15H29O4PS   !   .ch(/ch2/ch2/o/oh)/ch2/ch2/ch2/ch2/ch2/ch2/ch2/ch2/ch2/ch2/
R296C15H29O4PS   !   .ch(/ch2/ch2/ch2/o/oh)/ch2/ch2/ch2/ch2/ch2/ch2/ch2/ch2/ch2/
R297C15H29O4PS   !   .ch(/ch2/ch2/ch2/ch2/o/oh)/ch2/ch2/ch2/ch2/ch2/ch2/ch2/ch2/
R298C15H29O4US   !   .o/o/ch(/ch2/ch2/ch3)/ch2/ch2/ch2/ch2/ch2/ch2/ch2/ch2/ch2/c
R299C15H29O2S   !   .ch(/ch2/ch2/ch2/ch2/ch2/ch2/ch3)/ch2/ch2/ch2/ch2/ch2/c(//o)
R300C15H29O2S   !   .ch(/ch2/ch2/ch2/ch2/c(//o)/o/ch3)/ch2/ch2/ch2/ch2/ch2/ch2/c
R301C15H29O2S   !   .ch(/ch2/ch2/ch2/c(//o)/o/ch3)/ch2/ch2/ch2/ch2/ch2/ch2/ch2/c
R302C15H29O4US   !   .o/o/ch(/ch2/ch2/ch2/ch3)/ch2/ch2/ch2/ch2/ch2/ch2/ch2/ch2/c
R303C15H29O2S   !   .ch(/ch3)/ch2/ch2/ch2/ch2/ch2/ch2/ch2/ch2/ch2/ch2/ch2/c(//o)
R304C15H29O2S   !   .ch(/ch2/ch2/c(//o)/o/ch3)/ch2/ch2/ch2/ch2/ch2/ch2/ch2/ch2/c
R305C15H29O4US   !   .o/o/ch(/ch2/ch2/ch2/ch2/ch3)/ch2/ch2/ch2/ch2/ch2/ch2/ch2/c
R306C15H29O2S   !   .ch(/ch2/ch3)/ch2/ch2/ch2/ch2/ch2/ch2/ch2/ch2/ch2/ch2/c(//o)
R307C15H29O2S   !   .ch(/ch2/c(//o)/o/ch3)/ch2/ch2/ch2/ch2/ch2/ch2/ch2/ch2/ch2/c
R308C15H29O4US   !   .o/o/ch(/ch2/ch2/ch2/ch2/ch2/ch3)/ch2/ch2/ch2/ch2/ch2/ch2/c
R309C15H29O2S   !   .ch(/c(//o)/o/ch3)/ch2/ch2/ch2/ch2/ch2/ch2/ch2/ch2/ch2/ch2/c
R310C17H33O6UPS   !   .o/o/ch(/c(//o)/o/ch2/o/oh)/ch2/ch2/ch2/ch2/ch2/ch2/ch2/ch
R311C17H33O4PS   !   .ch(/o/oh)/o/c(//o)/ch2/ch2/ch2/ch2/ch2/ch2/ch2/ch2/ch2/ch2
R312C17H33O4PS   !   .ch(/ch2/ch2/ch2/c(//o)/o/ch2/o/oh)/ch2/ch2/ch2/ch2/ch2/ch2
R313C17H33O4PS   !   .ch(/ch2/ch2/ch2/ch2/c(//o)/o/ch2/o/oh)/ch2/ch2/ch2/ch2/ch2
R314C17H33O4PS   !   .ch(/ch2/ch2/ch2/ch2/ch2/c(//o)/o/ch2/o/oh)/ch2/ch2/ch2/ch2
R315C17H33O4PS   !   .ch(/ch2/ch2/ch2/ch2/ch2/ch2/ch2/ch3)/ch2/ch2/ch2/ch2/ch2/c
R316C17H33O6UPS   !   .o/o/ch(/ch2/c(//o)/o/ch2/o/oh)/ch2/ch2/ch2/ch2/ch2/ch2/ch
R317C17H33O4PS   !   .ch(/ch2/ch2/ch2/ch2/ch2/ch2/ch3)/ch2/ch2/ch2/ch2/ch2/ch2/c
R318C15H31O2U   !   .o/o/ch2/ch2/ch2/ch2/ch2/ch2/ch2/ch2/ch2/ch2/ch2/ch2/ch2/ch2
R319C15H31   !   .ch(/ch2/ch2/ch3)/ch2/ch2/ch2/ch2/ch2/ch2/ch2/ch2/ch2/ch2/ch3
R320C15H31   !   .ch(/ch2/ch2/ch2/ch3)/ch2/ch2/ch2/ch2/ch2/ch2/ch2/ch2/ch2/ch3
R321C15H31   !   .ch(/ch2/ch2/ch2/ch2/ch3)/ch2/ch2/ch2/ch2/ch2/ch2/ch2/ch2/ch3
R322C15H31   !   .ch(/ch2/ch2/ch2/ch2/ch2/ch3)/ch2/ch2/ch2/ch2/ch2/ch2/ch2/ch3
R323C17H33O6UPS   !   .o/o/ch2/o/c(//o)/ch(/o/oh)/ch2/ch2/ch2/ch2/ch2/ch2/ch2/ch
R324C17H33O4PS   !   .c(/o/oh)(/c(//o)/o/ch3)/ch2/ch2/ch2/ch2/ch2/ch2/ch2/ch2/ch
R325C16H31O3KP   !   .c(//o)/ch(/o/oh)/ch2/ch2/ch2/ch2/ch2/ch2/ch2/ch2/ch2/ch2/c
R326C17H33O6UPS   !   .o/o/ch(/ch(/o/oh)/c(//o)/o/ch3)/ch2/ch2/ch2/ch2/ch2/ch2/c
R327C17H33O4PS   !   .ch(/ch2/ch2/ch2/ch2/ch(/o/oh)/c(//o)/o/ch3)/ch2/ch2/ch2/ch
R328C17H33O4PS   !   .ch(/ch2/ch2/ch2/ch2/ch2/ch2/ch2/ch3)/ch2/ch2/ch2/ch2/ch2/c
R329C17H33O4PS   !   .ch(/ch2/ch2/ch2/ch2/ch2/ch2/ch3)/ch2/ch2/ch2/ch2/ch2/ch2/c
R330C17H33O6UPS   !   .o/o/ch(/ch2/ch(/o/oh)/c(//o)/o/ch3)/ch2/ch2/ch2/ch2/ch2/c
R331C17H33O4PS   !   .ch(/ch2/ch2/ch2/ch2/ch2/ch3)/ch2/ch2/ch2/ch2/ch2/ch2/ch2/c
R332C3H5O4PS   !   .ch(/o/oh)/c(//o)/o/ch3
R333C17H33O6UPS   !   .o/o/ch(/ch2/ch2/ch(/o/oh)/c(//o)/o/ch3)/ch2/ch2/ch2/ch2/c
R334C17H33O4PS   !   .ch(/ch2/ch2/ch2/ch2/ch3)/ch2/ch2/ch2/ch2/ch2/ch2/ch2/ch2/c
R335C4H7O4PS   !   .ch2/ch(/o/oh)/c(//o)/o/ch3
R336C17H33O6UPS   !   .o/o/ch(/ch2/ch2/ch2/ch(/o/oh)/c(//o)/o/ch3)/ch2/ch2/ch2/c
R337C17H33O4PS   !   .ch(/ch2/ch2/ch2/ch3)/ch2/ch2/ch2/ch2/ch2/ch2/ch2/ch2/ch2/c
R338C5H9O4PS   !   .ch2/ch2/ch(/o/oh)/c(//o)/o/ch3
R339C13H27O2P   !   .ch(/ch2/o/oh)/ch2/ch2/ch2/ch2/ch2/ch2/ch2/ch2/ch2/ch2/ch3
R340C13H27O2P   !   .ch(/ch2/ch2/o/oh)/ch2/ch2/ch2/ch2/ch2/ch2/ch2/ch2/ch2/ch3
R341C13H27O2P   !   .ch(/ch2/ch2/ch2/o/oh)/ch2/ch2/ch2/ch2/ch2/ch2/ch2/ch2/ch3
R342C13H27O2P   !   .ch(/ch2/ch2/ch2/ch2/o/oh)/ch2/ch2/ch2/ch2/ch2/ch2/ch2/ch3
R343C13H27O2U   !   .o/o/ch(/ch2/ch2/ch3)/ch2/ch2/ch2/ch2/ch2/ch2/ch2/ch2/ch3
R344C13H27O2U   !   .o/o/ch(/ch2/ch2/ch2/ch3)/ch2/ch2/ch2/ch2/ch2/ch2/ch2/ch3
R345C13H27   !   .ch(/ch3)/ch2/ch2/ch2/ch2/ch2/ch2/ch2/ch2/ch2/ch2/ch3
R346C13H27   !   .ch(/ch2/ch3)/ch2/ch2/ch2/ch2/ch2/ch2/ch2/ch2/ch2/ch3
R347C13H27O2U   !   .o/o/ch(/ch2/ch2/ch2/ch2/ch3)/ch2/ch2/ch2/ch2/ch2/ch2/ch3
R348C13H27O2U   !   .o/o/ch(/ch2/ch2/ch2/ch2/ch2/ch3)2
R349C17H33O6UPS   !   .o/o/ch(/c(//o)/o/ch3)/ch(/o/oh)/ch2/ch2/ch2/ch2/ch2/ch2/c
R350C17H33O4PS   !   .ch(/ch2/ch2/ch2/ch2/ch2/ch2/ch2/ch3)/ch2/ch2/ch2/ch2/ch(/o
R351C17H33O6UPS   !   .o/o/ch2/o/c(//o)/ch2/ch(/o/oh)/ch2/ch2/ch2/ch2/ch2/ch2/ch
R352C17H33O4PS   !   .c(/o/oh)(/ch2/c(//o)/o/ch3)/ch2/ch2/ch2/ch2/ch2/ch2/ch2/ch
R353C16H31O3KP   !   .c(//o)/ch2/ch(/o/oh)/ch2/ch2/ch2/ch2/ch2/ch2/ch2/ch2/ch2/c
R354C17H33O6UPS   !   .o/o/ch(/ch(/o/oh)/ch2/c(//o)/o/ch3)/ch2/ch2/ch2/ch2/ch2/c
R355C17H33O4PS   !   .ch(/ch2/ch2/ch2/ch2/ch2/ch2/ch3)/ch2/ch2/ch2/ch2/ch2/ch(/o
R356C17H33O4PS   !   .ch(/ch2/ch2/ch2/ch2/ch2/ch3)/ch2/ch2/ch2/ch2/ch2/ch2/ch(/o
R357C17H33O6UPS   !   .o/o/ch(/ch2/ch(/o/oh)/ch2/c(//o)/o/ch3)/ch2/ch2/ch2/ch2/c
R358C17H33O4PS   !   .ch(/ch2/ch2/ch2/ch2/ch3)/ch2/ch2/ch2/ch2/ch2/ch2/ch2/ch(/o
R359C4H7O4PS   !   .ch(/o/oh)/ch2/c(//o)/o/ch3
R360C17H33O6UPS   !   .o/o/ch(/ch2/ch2/ch(/o/oh)/ch2/c(//o)/o/ch3)/ch2/ch2/ch2/c
R361C17H33O4PS   !   .ch(/ch2/ch2/ch2/ch3)/ch2/ch2/ch2/ch2/ch2/ch2/ch2/ch2/ch(/o
R362C5H9O4PS   !   .ch2/ch(/o/oh)/ch2/c(//o)/o/ch3
R363C17H33O6UPS   !   .o/o/ch(/ch2/ch2/ch2/ch(/o/oh)/ch2/c(//o)/o/ch3)/ch2/ch2/c
R364C17H33O4PS   !   .ch(/ch2/ch2/ch3)/ch2/ch2/ch2/ch2/ch2/ch2/ch2/ch2/ch2/ch(/o
R365C6H11O4PS   !   .ch2/ch2/ch(/o/oh)/ch2/c(//o)/o/ch3
R366C12H25O2P   !   .ch(/ch2/o/oh)/ch2/ch2/ch2/ch2/ch2/ch2/ch2/ch2/ch2/ch3
R367C12H25O2P   !   .ch(/ch2/ch2/o/oh)/ch2/ch2/ch2/ch2/ch2/ch2/ch2/ch2/ch3
R368C12H25O2P   !   .ch(/ch2/ch2/ch2/o/oh)/ch2/ch2/ch2/ch2/ch2/ch2/ch2/ch3
R369C12H25O2P   !   .ch(/ch2/ch2/ch2/ch2/o/oh)/ch2/ch2/ch2/ch2/ch2/ch2/ch3
R370C12H25O2U   !   .o/o/ch(/ch2/ch2/ch3)/ch2/ch2/ch2/ch2/ch2/ch2/ch2/ch3
R371C12H25   !   .ch(/ch2/ch3)/ch2/ch2/ch2/ch2/ch2/ch2/ch2/ch2/ch3
R372C12H25O2U   !   .o/o/ch(/ch2/ch2/ch2/ch3)/ch2/ch2/ch2/ch2/ch2/ch2/ch3
R373C12H25   !   .ch(/ch3)/ch2/ch2/ch2/ch2/ch2/ch2/ch2/ch2/ch2/ch3
R374C12H25O2U   !   .o/o/ch(/ch2/ch2/ch2/ch2/ch3)/ch2/ch2/ch2/ch2/ch2/ch3