*
*                         MECHANISM FOR LOW TEMPERATURE OXIDATION OF
*
*                                  N-DODECANE
*
*                                  GENERATED BY EXGAS
*
*                         see Biet et al. Energy&Fuel, 2008
*
********************************************************************************
ELEMENTS
H O C N HE AR
END
SPECIES

! Biradicals :
B1O
B2CO
B3C
B4CH
B5CH2
B6CH2

! Primary molecules :
! Reactants:
C12H26-1
H2
H2O
O2
H2O2
CH4
HCHO
CH3OH
CO2
CH3OOH
C2H2T
C2H4Z
C2H6
CH2COZ
CH3CHO
C2H5OH
C2H5OOH
CH3COOOH
C3H6Y
C3H8
C4H8Y
C4H10
C4H10
C2H5CHO
C3H7OH
C2H6CO
C3H8CO
C4H6Z2
C2H3CHOZ
C3H6O3KP
C4H8O3KP
C12H24O3KP
C10H20O3KP
C9H18O3KP
C5H10O3KP
C8H16O3KP
C6H12O3KP
C7H14O3KP
C12H24Z
C11H22Z
C5H10Z
C10H20Z
C6H12Z
C9H18Z
C7H14Z
C8H16Z
C12H26O2P
C3H6O2PZ
C4H8O2PZ
C5H10O2PZ
C6H12O2PZ
C11H22O2PZ
C7H14O2PZ
C10H20O2PZ
C8H16O2PZ
C9H18O2PZ
C4H8OA
C12H24OA
C3H6O2PY
C12H24OK
C10H20OA
C4H8O2PY
C9H18OA
C8H16OA
C5H10OA
C7H14OA
C6H12OA
C5H10Y
C10H20OK
C5H10OK
C6H12OK
C7H14OK
C8H16OK
C9H18OK
C3H8O2P
C4H10OL
C4H10OE
C4H10O2Q
C5H12
C6H14
C4H10O2P
C10H22O2P
C9H20O2P
C8H18O2P
C7H16O2P
C6H14O2P
C5H12O2P

! Secondary molecules :
C3H6Z
C11H22OA
C4H8Z
C3H6OLY
C4H6OAY
C4H8OLY
C4H8O2QY
C6H10Y2
C7H12Y2
C8H14Y2
C5H8OAY
C5H10OLY
C5H10O2QY
C9H16Y2
C5H10O2PY
C6H10OAY
C6H12OLY
C6H12O2QY
C10H18Y2
C6H10OKZ
C5H8OKZ
C4H6OKZ
C3H4OKZ

! Cyclic primary molecules :
C2H4O#3
C3H6O#3
C3H6O#4
C4H8O#3
C4H8O#4
C4H8O#5
C12H24O#3
C12H24O#4
C12H24O#5
C12H24O#6
C10H20O#3
C10H20O#4
C10H20O#5
C10H20O#6
C9H18O#3
C9H18O#4
C9H18O#5
C9H18O#6
C5H10O#4
C8H16O#3
C8H16O#4
C8H16O#5
C8H16O#6
C5H10O#3
C6H12O#4
C7H14O#3
C7H14O#4
C7H14O#5
C7H14O#6
C6H12O#3
C6H12O#5
C6H12O#6
C5H10O#5
C5H10O#6

! Cyclic secondary molecules :
C6H10Z#6
C11H22O#3
C12H22O4#4KP
C12H22O4#5KP
C12H22O4#6KP

! Free radicals :
R1H   !   .h
R2OH   !   .oh
R3OOH   !   .o/oh
R4CH3   !   .ch3
R5CHO   !   .ch//o
R6CH2OH   !   .ch2/oh
R7CH3O   !   .o/ch3
R8CH3OO   !   .o/o/ch3
R9C2HT   !   .c///ch
R10C2H3V   !   .ch//ch2
R11C2H5   !   .ch2/ch3
R12CHCOV   !   .ch//c//o
R13CH2CHO   !   .ch2/ch//o
R14CH3CO   !   .c(//o)/ch3
R15C2H5O   !   .o/ch2/ch3
R16C2H4OOH   !   .ch2/ch2/o/oh
R17C2H5OO   !   .o/o/ch2/ch3
R18CH3COOO   !   .o/o/c(//o)/ch3
R19C3H7   !   .ch2/ch2/ch3
R20C4H9   !   .ch2/ch2/ch2/ch3
R21CH3OCO   !   .c(//o)/o/ch3
R22C12H25   !   .ch2/ch2/ch2/ch2/ch2/ch2/ch2/ch2/ch2/ch2/ch2/ch3
R23C12H25   !   .ch(/ch3)/ch2/ch2/ch2/ch2/ch2/ch2/ch2/ch2/ch2/ch3
R24C12H25   !   .ch(/ch2/ch3)/ch2/ch2/ch2/ch2/ch2/ch2/ch2/ch2/ch3
R25C12H25   !   .ch(/ch2/ch2/ch3)/ch2/ch2/ch2/ch2/ch2/ch2/ch2/ch3
R26C12H25   !   .ch(/ch2/ch2/ch2/ch3)/ch2/ch2/ch2/ch2/ch2/ch2/ch3
R27C12H25   !   .ch(/ch2/ch2/ch2/ch2/ch3)/ch2/ch2/ch2/ch2/ch2/ch3
R28C3H7O2Q   !   .o/o/ch2/ch2/ch3
R29C4H9O2Q   !   .o/o/ch2/ch2/ch2/ch3
R30C12H25O2Q   !   .o/o/ch2/ch2/ch2/ch2/ch2/ch2/ch2/ch2/ch2/ch2/ch2/ch3
R31C10H21   !   .ch2/ch2/ch2/ch2/ch2/ch2/ch2/ch2/ch2/ch3
R32C12H25O2Q   !   .o/o/ch(/ch3)/ch2/ch2/ch2/ch2/ch2/ch2/ch2/ch2/ch2/ch3
R33C9H19   !   .ch2/ch2/ch2/ch2/ch2/ch2/ch2/ch2/ch3
R34C12H25O2Q   !   .o/o/ch(/ch2/ch3)/ch2/ch2/ch2/ch2/ch2/ch2/ch2/ch2/ch3
R35C8H17   !   .ch2/ch2/ch2/ch2/ch2/ch2/ch2/ch3
R36C12H25O2Q   !   .o/o/ch(/ch2/ch2/ch3)/ch2/ch2/ch2/ch2/ch2/ch2/ch2/ch3
R37C7H15   !   .ch2/ch2/ch2/ch2/ch2/ch2/ch3
R38C12H25O2Q   !   .o/o/ch(/ch2/ch2/ch2/ch3)/ch2/ch2/ch2/ch2/ch2/ch2/ch3
R39C6H13   !   .ch2/ch2/ch2/ch2/ch2/ch3
R40C12H25O2Q   !   .o/o/ch(/ch2/ch2/ch2/ch2/ch3)/ch2/ch2/ch2/ch2/ch2/ch3
R41C5H11   !   .ch2/ch2/ch2/ch2/ch3
R42C3H7O2P   !   .ch(/ch3)/ch2/o/oh
R43C3H7O2P   !   .ch2/ch2/ch2/o/oh
R44C4H9O2P   !   .ch(/ch2/o/oh)/ch2/ch3
R45C4H9O2P   !   .ch(/ch3)/ch2/ch2/o/oh
R46C4H9O2P   !   .ch2/ch2/ch2/ch2/o/oh
R47C12H25O2P   !   .ch(/ch2/o/oh)/ch2/ch2/ch2/ch2/ch2/ch2/ch2/ch2/ch2/ch3
R48C12H25O2P   !   .ch(/ch2/ch2/o/oh)/ch2/ch2/ch2/ch2/ch2/ch2/ch2/ch2/ch3
R49C12H25O2P   !   .ch(/ch2/ch2/ch2/o/oh)/ch2/ch2/ch2/ch2/ch2/ch2/ch2/ch3
R50C12H25O2P   !   .ch(/ch2/ch2/ch2/ch2/o/oh)/ch2/ch2/ch2/ch2/ch2/ch2/ch3
R51C10H21O2Q   !   .o/o/ch2/ch2/ch2/ch2/ch2/ch2/ch2/ch2/ch2/ch3
R52C10H21   !   .ch(/ch2/ch2/ch3)/ch2/ch2/ch2/ch2/ch2/ch3
R53C10H21   !   .ch(/ch2/ch2/ch2/ch3)/ch2/ch2/ch2/ch2/ch3
R54C12H25O2P   !   .ch2/ch(/o/oh)/ch2/ch2/ch2/ch2/ch2/ch2/ch2/ch2/ch2/ch3
R55C12H25O2P   !   .ch(/ch(/o/oh)/ch3)/ch2/ch2/ch2/ch2/ch2/ch2/ch2/ch2/ch3
R56C12H25O2P   !   .ch(/ch2/ch(/o/oh)/ch3)/ch2/ch2/ch2/ch2/ch2/ch2/ch2/ch3
R57C12H25O2P   !   .ch(/ch2/ch2/ch(/o/oh)/ch3)/ch2/ch2/ch2/ch2/ch2/ch2/ch3
R58C12H25O2P   !   .ch(/ch2/ch2/ch2/ch(/o/oh)/ch3)/ch2/ch2/ch2/ch2/ch2/ch3
R59C9H19O2Q   !   .o/o/ch2/ch2/ch2/ch2/ch2/ch2/ch2/ch2/ch3
R60C9H19   !   .ch(/ch2/ch2/ch3)/ch2/ch2/ch2/ch2/ch3
R61C9H19   !   .ch(/ch2/ch2/ch2/ch3)2
R62C9H19   !   .ch(/ch2/ch3)/ch2/ch2/ch2/ch2/ch2/ch3
R63C12H25O2P   !   .ch(/ch3)/ch(/o/oh)/ch2/ch2/ch2/ch2/ch2/ch2/ch2/ch2/ch3
R64C12H25O2P   !   .ch2/ch2/ch(/o/oh)/ch2/ch2/ch2/ch2/ch2/ch2/ch2/ch2/ch3
R65C12H25O2P   !   .ch(/ch(/o/oh)/ch2/ch3)/ch2/ch2/ch2/ch2/ch2/ch2/ch2/ch3
R66C12H25O2P   !   .ch(/ch2/ch(/o/oh)/ch2/ch3)/ch2/ch2/ch2/ch2/ch2/ch2/ch3
R67C12H25O2P   !   .ch(/ch2/ch2/ch(/o/oh)/ch2/ch3)/ch2/ch2/ch2/ch2/ch2/ch3
R68C12H25O2P   !   .ch(/ch2/ch2/ch2/ch2/ch3)/ch2/ch2/ch2/ch(/o/oh)/ch2/ch3
R69C8H17O2Q   !   .o/o/ch2/ch2/ch2/ch2/ch2/ch2/ch2/ch3
R70C8H17   !   .ch(/ch2/ch2/ch3)/ch2/ch2/ch2/ch3
R71C8H17   !   .ch(/ch2/ch3)/ch2/ch2/ch2/ch2/ch3
R72C8H17   !   .ch(/ch3)/ch2/ch2/ch2/ch2/ch2/ch3
R73C12H25O2P   !   .ch(/ch2/ch3)/ch(/o/oh)/ch2/ch2/ch2/ch2/ch2/ch2/ch2/ch3
R74C12H25O2P   !   .ch(/ch3)/ch2/ch(/o/oh)/ch2/ch2/ch2/ch2/ch2/ch2/ch2/ch3
R75C12H25O2P   !   .ch2/ch2/ch2/ch(/o/oh)/ch2/ch2/ch2/ch2/ch2/ch2/ch2/ch3
R76C12H25O2P   !   .ch(/ch(/o/oh)/ch2/ch2/ch3)/ch2/ch2/ch2/ch2/ch2/ch2/ch3
R77C12H25O2P   !   .ch(/ch2/ch(/o/oh)/ch2/ch2/ch3)/ch2/ch2/ch2/ch2/ch2/ch3
R78C12H25O2P   !   .ch(/ch2/ch2/ch2/ch2/ch3)/ch2/ch2/ch(/o/oh)/ch2/ch2/ch3
R79C12H25O2P   !   .ch(/ch2/ch2/ch2/ch3)/ch2/ch2/ch2/ch(/o/oh)/ch2/ch2/ch3
R80C7H15O2Q   !   .o/o/ch2/ch2/ch2/ch2/ch2/ch2/ch3
R81C7H15   !   .ch(/ch2/ch2/ch3)2
R82C7H15   !   .ch(/ch2/ch3)/ch2/ch2/ch2/ch3
R83C7H15   !   .ch(/ch3)/ch2/ch2/ch2/ch2/ch3
R84C12H25O2P   !   .ch(/ch2/ch2/ch3)/ch(/o/oh)/ch2/ch2/ch2/ch2/ch2/ch2/ch3
R85C12H25O2P   !   .ch(/ch2/ch3)/ch2/ch(/o/oh)/ch2/ch2/ch2/ch2/ch2/ch2/ch3
R86C12H25O2P   !   .ch(/ch3)/ch2/ch2/ch(/o/oh)/ch2/ch2/ch2/ch2/ch2/ch2/ch3
R87C12H25O2P   !   .ch2/ch2/ch2/ch2/ch(/o/oh)/ch2/ch2/ch2/ch2/ch2/ch2/ch3
R88C12H25O2P   !   .ch(/ch(/o/oh)/ch2/ch2/ch2/ch3)/ch2/ch2/ch2/ch2/ch2/ch3
R89C12H25O2P   !   .ch(/ch2/ch2/ch2/ch2/ch3)/ch2/ch(/o/oh)/ch2/ch2/ch2/ch3
R90C12H25O2P   !   .ch(/ch2/ch2/ch2/ch3)/ch2/ch2/ch(/o/oh)/ch2/ch2/ch2/ch3
R91C12H25O2P   !   .ch(/ch2/ch2/ch3)/ch2/ch2/ch2/ch(/o/oh)/ch2/ch2/ch2/ch3
R92C6H13O2Q   !   .o/o/ch2/ch2/ch2/ch2/ch2/ch3
R93C6H13   !   .ch(/ch2/ch3)/ch2/ch2/ch3
R94C6H13   !   .ch(/ch3)/ch2/ch2/ch2/ch3
R95C12H25O2P   !   .ch(/ch2/ch2/ch2/ch3)/ch(/o/oh)/ch2/ch2/ch2/ch2/ch2/ch3
R96C12H25O2P   !   .ch(/ch2/ch2/ch3)/ch2/ch(/o/oh)/ch2/ch2/ch2/ch2/ch2/ch3
R97C12H25O2P   !   .ch(/ch2/ch3)/ch2/ch2/ch(/o/oh)/ch2/ch2/ch2/ch2/ch2/ch3
R98C12H25O2P   !   .ch(/ch3)/ch2/ch2/ch2/ch(/o/oh)/ch2/ch2/ch2/ch2/ch2/ch3
R99C12H25O2P   !   .ch(/ch2/ch2/ch2/ch2/ch3)/ch(/o/oh)/ch2/ch2/ch2/ch2/ch3
R100C12H25O2P   !   .ch(/ch2/ch2/ch2/ch3)/ch2/ch(/o/oh)/ch2/ch2/ch2/ch2/ch3
R101C12H25O2P   !   .ch(/ch2/ch2/ch3)/ch2/ch2/ch(/o/oh)/ch2/ch2/ch2/ch2/ch3
R102C12H25O2P   !   .ch(/ch2/ch3)/ch2/ch2/ch2/ch(/o/oh)/ch2/ch2/ch2/ch2/ch3
R103C5H11O2Q   !   .o/o/ch2/ch2/ch2/ch2/ch3
R104C5H11   !   .ch(/ch3)/ch2/ch2/ch3
R105C3H7O4QP   !   .o/o/ch(/ch3)/ch2/o/oh
R106C3H7O4QP   !   .o/o/ch2/ch2/ch2/o/oh
R107C4H9O4QP   !   .o/o/ch(/ch2/o/oh)/ch2/ch3
R108C4H9O4QP   !   .o/o/ch(/ch3)/ch2/ch2/o/oh
R109C4H9O4QP   !   .o/o/ch2/ch2/ch2/ch2/o/oh
R110C4H9O2P   !   .ch(/o/oh)/ch2/ch2/ch3
R111C12H25O4QP   !   .o/o/ch(/ch2/o/oh)/ch2/ch2/ch2/ch2/ch2/ch2/ch2/ch2/ch2/ch3
R112C12H25O2P   !   .ch(/ch2/ch2/ch2/ch2/ch2/o/oh)/ch2/ch2/ch2/ch2/ch2/ch3
R113C12H25O2P   !   .ch(/ch2/ch2/ch2/ch2/ch3)/ch2/ch2/ch2/ch2/ch2/ch2/o/oh
R114C12H25O2P   !   .ch(/ch2/ch2/ch2/ch3)/ch2/ch2/ch2/ch2/ch2/ch2/ch2/o/oh
R115C12H25O4QP   !   .o/o/ch(/ch2/ch2/o/oh)/ch2/ch2/ch2/ch2/ch2/ch2/ch2/ch2/ch3
R116C12H25O2P   !   .ch(/ch2/ch2/ch3)/ch2/ch2/ch2/ch2/ch2/ch2/ch2/ch2/o/oh
R117C12H25O4QP   !   .o/o/ch(/ch2/ch2/ch2/o/oh)/ch2/ch2/ch2/ch2/ch2/ch2/ch2/ch3
R118C12H25O2P   !   .ch(/o/oh)/ch2/ch2/ch2/ch2/ch2/ch2/ch2/ch2/ch2/ch2/ch3
R119C12H25O2P   !   .ch(/ch2/ch3)/ch2/ch2/ch2/ch2/ch2/ch2/ch2/ch2/ch2/o/oh
R120C12H25O4QP   !   .o/o/ch(/ch2/ch2/ch2/ch2/o/oh)/ch2/ch2/ch2/ch2/ch2/ch2/ch3
R121C12H25O2P   !   .ch(/ch3)/ch2/ch2/ch2/ch2/ch2/ch2/ch2/ch2/ch2/ch2/o/oh
R122C10H21O2P   !   .ch(/ch2/o/oh)/ch2/ch2/ch2/ch2/ch2/ch2/ch2/ch3
R123C10H21O2P   !   .ch(/ch2/ch2/o/oh)/ch2/ch2/ch2/ch2/ch2/ch2/ch3
R124C10H21O2P   !   .ch(/ch2/ch2/ch2/o/oh)/ch2/ch2/ch2/ch2/ch2/ch3
R125C10H21O2P   !   .ch(/ch2/ch2/ch2/ch2/o/oh)/ch2/ch2/ch2/ch2/ch3
R126C10H21O2Q   !   .o/o/ch(/ch2/ch2/ch3)/ch2/ch2/ch2/ch2/ch2/ch3
R127C10H21   !   .ch(/ch2/ch3)/ch2/ch2/ch2/ch2/ch2/ch2/ch3
R128C10H21   !   .ch(/ch3)/ch2/ch2/ch2/ch2/ch2/ch2/ch2/ch3
R129C10H21O2Q   !   .o/o/ch(/ch2/ch2/ch2/ch3)/ch2/ch2/ch2/ch2/ch3
R130C12H25O4QP   !   .o/o/ch2/ch(/o/oh)/ch2/ch2/ch2/ch2/ch2/ch2/ch2/ch2/ch2/ch3
R131C12H25O2P   !   .ch(/ch2/ch2/ch2/ch2/ch3)/ch2/ch2/ch2/ch2/ch(/o/oh)/ch3
R132C12H25O4QP   !   .o/o/ch(/ch(/o/oh)/ch3)/ch2/ch2/ch2/ch2/ch2/ch2/ch2/ch2/ch3
R133C12H25O2P   !   .ch(/ch2/ch2/ch2/ch3)/ch2/ch2/ch2/ch2/ch2/ch(/o/oh)/ch3
R134C12H25O2P   !   .ch(/ch2/ch2/ch3)/ch2/ch2/ch2/ch2/ch2/ch2/ch(/o/oh)/ch3
R135C12H25O4QP   !   .o/o/ch(/ch2/ch(/o/oh)/ch3)/ch2/ch2/ch2/ch2/ch2/ch2/ch2/ch3
R136C12H25O2P   !   .ch(/ch2/ch3)/ch2/ch2/ch2/ch2/ch2/ch2/ch2/ch(/o/oh)/ch3
R137C12H25O4QP   !   .o/o/ch(/ch2/ch2/ch(/o/oh)/ch3)/ch2/ch2/ch2/ch2/ch2/ch2/ch3
R138C12H25O2P   !   .c(/o/oh)(/ch3)/ch2/ch2/ch2/ch2/ch2/ch2/ch2/ch2/ch2/ch3
R139C12H25O2P   !   .ch(/ch3)/ch2/ch2/ch2/ch2/ch2/ch2/ch2/ch2/ch(/o/oh)/ch3
R140C3H7O2P   !   .ch2/ch(/o/oh)/ch3
R141C12H25O4QP   !   .o/o/ch(/ch2/ch2/ch2/ch(/o/oh)/ch3)/ch2/ch2/ch2/ch2/ch2/ch3
R142C12H25O2P   !   .ch2/ch2/ch2/ch2/ch2/ch2/ch2/ch2/ch2/ch2/ch(/o/oh)/ch3
R143C4H9O2P   !   .ch2/ch2/ch(/o/oh)/ch3
R144C9H19O2P   !   .ch(/ch2/o/oh)/ch2/ch2/ch2/ch2/ch2/ch2/ch3
R145C9H19O2P   !   .ch(/ch2/ch2/o/oh)/ch2/ch2/ch2/ch2/ch2/ch3
R146C9H19O2P   !   .ch(/ch2/ch2/ch2/o/oh)/ch2/ch2/ch2/ch2/ch3
R147C9H19O2P   !   .ch(/ch2/ch2/ch2/ch3)/ch2/ch2/ch2/ch2/o/oh
R148C9H19O2Q   !   .o/o/ch(/ch2/ch2/ch3)/ch2/ch2/ch2/ch2/ch3
R149C9H19   !   .ch(/ch3)/ch2/ch2/ch2/ch2/ch2/ch2/ch3
R150C9H19O2Q   !   .o/o/ch(/ch2/ch2/ch2/ch3)2
R151C9H19O2Q   !   .o/o/ch(/ch2/ch3)/ch2/ch2/ch2/ch2/ch2/ch3
R152C12H25O4QP   !   .o/o/ch(/ch3)/ch(/o/oh)/ch2/ch2/ch2/ch2/ch2/ch2/ch2/ch2/ch3
R153C12H25O2P   !   .ch(/ch2/ch2/ch2/ch3)/ch2/ch2/ch2/ch2/ch(/o/oh)/ch2/ch3
R154C12H25O4QP   !   .o/o/ch2/ch2/ch(/o/oh)/ch2/ch2/ch2/ch2/ch2/ch2/ch2/ch2/ch3
R155C10H21O2P   !   .ch(/o/oh)/ch2/ch2/ch2/ch2/ch2/ch2/ch2/ch2/ch3
R156C12H25O4QP   !   .o/o/ch(/ch(/o/oh)/ch2/ch3)/ch2/ch2/ch2/ch2/ch2/ch2/ch2/ch3
R157C12H25O2P   !   .ch(/ch2/ch2/ch3)/ch2/ch2/ch2/ch2/ch2/ch(/o/oh)/ch2/ch3
R158C12H25O2P   !   .ch(/ch2/ch3)/ch2/ch2/ch2/ch2/ch2/ch2/ch(/o/oh)/ch2/ch3
R159C12H25O4QP   !   .o/o/ch(/ch2/ch(/o/oh)/ch2/ch3)/ch2/ch2/ch2/ch2/ch2/ch2/ch3
R160C12H25O2P   !   .ch(/ch3)/ch2/ch2/ch2/ch2/ch2/ch2/ch2/ch(/o/oh)/ch2/ch3
R161C3H7O2P   !   .ch(/o/oh)/ch2/ch3
R162C12H25O4QP   !   .o/o/ch(/ch2/ch2/ch(/o/oh)/ch2/ch3)/ch2/ch2/ch2/ch2/ch2/ch3
R163C12H25O2P   !   .c(/o/oh)(/ch2/ch3)/ch2/ch2/ch2/ch2/ch2/ch2/ch2/ch2/ch3
R164C12H25O2P   !   .ch2/ch2/ch2/ch2/ch2/ch2/ch2/ch2/ch2/ch(/o/oh)/ch2/ch3
R165C4H9O2P   !   .ch2/ch(/o/oh)/ch2/ch3
R166C12H25O4QP   !   .o/o/ch(/ch2/ch2/ch2/ch2/ch3)/ch2/ch2/ch2/ch(/o/oh)/ch2/ch3
R167C5H11O2P   !   .ch2/ch2/ch(/o/oh)/ch2/ch3
R168C8H17O2P   !   .ch(/ch2/o/oh)/ch2/ch2/ch2/ch2/ch2/ch3
R169C8H17O2P   !   .ch(/ch2/ch2/o/oh)/ch2/ch2/ch2/ch2/ch3
R170C8H17O2P   !   .ch(/ch2/ch2/ch2/o/oh)/ch2/ch2/ch2/ch3
R171C8H17O2P   !   .ch(/ch2/ch2/ch3)/ch2/ch2/ch2/ch2/o/oh
R172C8H17O2Q   !   .o/o/ch(/ch2/ch2/ch3)/ch2/ch2/ch2/ch3
R173C8H17O2Q   !   .o/o/ch(/ch2/ch3)/ch2/ch2/ch2/ch2/ch3
R174C8H17O2Q   !   .o/o/ch(/ch3)/ch2/ch2/ch2/ch2/ch2/ch3
R175C12H25O4QP   !   .o/o/ch(/ch2/ch3)/ch(/o/oh)/ch2/ch2/ch2/ch2/ch2/ch2/ch2/ch3
R176C12H25O2P   !   .ch(/ch2/ch2/ch3)/ch2/ch2/ch2/ch2/ch(/o/oh)/ch2/ch2/ch3
R177C12H25O4QP   !   .o/o/ch(/ch3)/ch2/ch(/o/oh)/ch2/ch2/ch2/ch2/ch2/ch2/ch2/ch3
R178C9H19O2P   !   .ch(/o/oh)/ch2/ch2/ch2/ch2/ch2/ch2/ch2/ch3
R179C12H25O4QP   !   .o/o/ch2/ch2/ch2/ch(/o/oh)/ch2/ch2/ch2/ch2/ch2/ch2/ch2/ch3
R180C12H25O2P   !   .c(/o/oh)(/ch2/ch2/ch3)/ch2/ch2/ch2/ch2/ch2/ch2/ch2/ch3
R181C10H21O2P   !   .ch2/ch(/o/oh)/ch2/ch2/ch2/ch2/ch2/ch2/ch2/ch3
R182C12H25O4QP   !   .o/o/ch(/ch(/o/oh)/ch2/ch2/ch3)/ch2/ch2/ch2/ch2/ch2/ch2/ch3
R183C12H25O2P   !   .ch(/ch2/ch3)/ch2/ch2/ch2/ch2/ch2/ch(/o/oh)/ch2/ch2/ch3
R184C12H25O2P   !   .ch(/ch3)/ch2/ch2/ch2/ch2/ch2/ch2/ch(/o/oh)/ch2/ch2/ch3
R185C12H25O4QP   !   .o/o/ch(/ch2/ch(/o/oh)/ch2/ch2/ch3)/ch2/ch2/ch2/ch2/ch2/ch3
R186C12H25O2P   !   .ch2/ch2/ch2/ch2/ch2/ch2/ch2/ch2/ch(/o/oh)/ch2/ch2/ch3
R187C12H25O4QP   !   .o/o/ch(/ch2/ch2/ch2/ch2/ch3)/ch2/ch2/ch(/o/oh)/ch2/ch2/ch3
R188C5H11O2P   !   .ch2/ch(/o/oh)/ch2/ch2/ch3
R189C12H25O4QP   !   .o/o/ch(/ch2/ch2/ch2/ch3)/ch2/ch2/ch2/ch(/o/oh)/ch2/ch2/ch3
R190C6H13O2P   !   .ch2/ch2/ch(/o/oh)/ch2/ch2/ch3
R191C7H15O2P   !   .ch(/ch2/o/oh)/ch2/ch2/ch2/ch2/ch3
R192C7H15O2P   !   .ch(/ch2/ch2/o/oh)/ch2/ch2/ch2/ch3
R193C7H15O2P   !   .ch(/ch2/ch2/ch3)/ch2/ch2/ch2/o/oh
R194C7H15O2P   !   .ch(/ch2/ch3)/ch2/ch2/ch2/ch2/o/oh
R195C7H15O2Q   !   .o/o/ch(/ch2/ch2/ch3)2
R196C7H15O2Q   !   .o/o/ch(/ch2/ch3)/ch2/ch2/ch2/ch3
R197C7H15O2Q   !   .o/o/ch(/ch3)/ch2/ch2/ch2/ch2/ch3
R198C12H25O4QP   !   .o/o/ch(/ch2/ch2/ch3)/ch(/o/oh)/ch2/ch2/ch2/ch2/ch2/ch2/ch3
R199C12H25O2P   !   .ch(/ch2/ch3)/ch2/ch2/ch2/ch2/ch(/o/oh)/ch2/ch2/ch2/ch3
R200C12H25O4QP   !   .o/o/ch(/ch2/ch3)/ch2/ch(/o/oh)/ch2/ch2/ch2/ch2/ch2/ch2/ch3
R201C8H17O2P   !   .ch(/o/oh)/ch2/ch2/ch2/ch2/ch2/ch2/ch3
R202C12H25O4QP   !   .o/o/ch(/ch3)/ch2/ch2/ch(/o/oh)/ch2/ch2/ch2/ch2/ch2/ch2/ch3
R203C12H25O2P   !   .c(/o/oh)(/ch2/ch2/ch2/ch3)/ch2/ch2/ch2/ch2/ch2/ch2/ch3
R204C9H19O2P   !   .ch2/ch(/o/oh)/ch2/ch2/ch2/ch2/ch2/ch2/ch3
R205C12H25O4QP   !   .o/o/ch2/ch2/ch2/ch2/ch(/o/oh)/ch2/ch2/ch2/ch2/ch2/ch2/ch3
R206C10H21O2P   !   .ch2/ch2/ch(/o/oh)/ch2/ch2/ch2/ch2/ch2/ch2/ch3
R207C12H25O4QP   !   .o/o/ch(/ch(/o/oh)/ch2/ch2/ch2/ch3)/ch2/ch2/ch2/ch2/ch2/ch3
R208C12H25O2P   !   .ch(/ch3)/ch2/ch2/ch2/ch2/ch2/ch(/o/oh)/ch2/ch2/ch2/ch3
R209C12H25O2P   !   .ch2/ch2/ch2/ch2/ch2/ch2/ch2/ch(/o/oh)/ch2/ch2/ch2/ch3
R210C12H25O4QP   !   .o/o/ch(/ch2/ch2/ch2/ch2/ch3)/ch2/ch(/o/oh)/ch2/ch2/ch2/ch3
R211C5H11O2P   !   .ch(/o/oh)/ch2/ch2/ch2/ch3
R212C12H25O4QP   !   .o/o/ch(/ch2/ch2/ch2/ch3)/ch2/ch2/ch(/o/oh)/ch2/ch2/ch2/ch3
R213C6H13O2P   !   .ch2/ch(/o/oh)/ch2/ch2/ch2/ch3
R214C12H25O4QP   !   .o/o/ch(/ch2/ch2/ch3)/ch2/ch2/ch2/ch(/o/oh)/ch2/ch2/ch2/ch3
R215C7H15O2P   !   .ch2/ch2/ch(/o/oh)/ch2/ch2/ch2/ch3
R216C6H13O2P   !   .ch(/ch2/o/oh)/ch2/ch2/ch2/ch3
R217C6H13O2P   !   .ch(/ch2/ch2/o/oh)/ch2/ch2/ch3
R218C6H13O2P   !   .ch(/ch2/ch3)/ch2/ch2/ch2/o/oh
R219C6H13O2P   !   .ch(/ch3)/ch2/ch2/ch2/ch2/o/oh
R220C6H13O2Q   !   .o/o/ch(/ch2/ch3)/ch2/ch2/ch3
R221C6H13O2Q   !   .o/o/ch(/ch3)/ch2/ch2/ch2/ch3
R222C12H25O4QP   !   .o/o/ch(/ch2/ch2/ch2/ch3)/ch(/o/oh)/ch2/ch2/ch2/ch2/ch2/ch3
R223C12H25O2P   !   .ch2/ch2/ch2/ch2/ch2/ch(/o/oh)/ch2/ch2/ch2/ch2/ch2/ch3
R224C12H25O2P   !   .ch(/ch3)/ch2/ch2/ch2/ch2/ch(/o/oh)/ch2/ch2/ch2/ch2/ch3
R225C12H25O4QP   !   .o/o/ch(/ch2/ch2/ch3)/ch2/ch(/o/oh)/ch2/ch2/ch2/ch2/ch2/ch3
R226C7H15O2P   !   .ch(/o/oh)/ch2/ch2/ch2/ch2/ch2/ch3
R227C12H25O4QP   !   .o/o/ch(/ch2/ch3)/ch2/ch2/ch(/o/oh)/ch2/ch2/ch2/ch2/ch2/ch3
R228C12H25O2P   !   .c(/o/oh)(/ch2/ch2/ch2/ch2/ch3)/ch2/ch2/ch2/ch2/ch2/ch3
R229C8H17O2P   !   .ch2/ch(/o/oh)/ch2/ch2/ch2/ch2/ch2/ch3
R230C12H25O4QP   !   .o/o/ch(/ch3)/ch2/ch2/ch2/ch(/o/oh)/ch2/ch2/ch2/ch2/ch2/ch3
R231C9H19O2P   !   .ch2/ch2/ch(/o/oh)/ch2/ch2/ch2/ch2/ch2/ch3
R232C12H25O4QP   !   .o/o/ch(/ch2/ch2/ch2/ch2/ch3)/ch(/o/oh)/ch2/ch2/ch2/ch2/ch3
R233C12H25O2P   !   .ch2/ch2/ch2/ch2/ch2/ch2/ch(/o/oh)/ch2/ch2/ch2/ch2/ch3
R234C12H25O4QP   !   .o/o/ch(/ch2/ch2/ch2/ch3)/ch2/ch(/o/oh)/ch2/ch2/ch2/ch2/ch3
R235C6H13O2P   !   .ch(/o/oh)/ch2/ch2/ch2/ch2/ch3
R236C12H25O4QP   !   .o/o/ch(/ch2/ch2/ch3)/ch2/ch2/ch(/o/oh)/ch2/ch2/ch2/ch2/ch3
R237C7H15O2P   !   .ch2/ch(/o/oh)/ch2/ch2/ch2/ch2/ch3
R238C12H25O4QP   !   .o/o/ch(/ch2/ch3)/ch2/ch2/ch2/ch(/o/oh)/ch2/ch2/ch2/ch2/ch3
R239C8H17O2P   !   .ch2/ch2/ch(/o/oh)/ch2/ch2/ch2/ch2/ch3
R240C5H11O2P   !   .ch(/ch2/o/oh)/ch2/ch2/ch3
R241C5H11O2P   !   .ch(/ch2/ch3)/ch2/ch2/o/oh
R242C5H11O2P   !   .ch(/ch3)/ch2/ch2/ch2/o/oh
R243C5H11O2P   !   .ch2/ch2/ch2/ch2/ch2/o/oh
R244C5H11O2Q   !   .o/o/ch(/ch3)/ch2/ch2/ch3
R245C4H9O4QP   !   .o/o/ch(/o/oh)/ch2/ch2/ch3
R246C12H25O4QP   !   .o/o/ch(/ch2/ch2/ch2/ch2/ch2/o/oh)/ch2/ch2/ch2/ch2/ch2/ch3
R247C12H25O2P   !   .ch2/ch2/ch2/ch2/ch2/ch2/ch2/ch2/ch2/ch2/ch2/ch2/o/oh
R248C12H25O4QP   !   .o/o/ch(/ch2/ch2/ch2/ch2/ch3)/ch2/ch2/ch2/ch2/ch2/ch2/o/oh
R249C12H25O4QP   !   .o/o/ch(/ch2/ch2/ch2/ch3)/ch2/ch2/ch2/ch2/ch2/ch2/ch2/o/oh
R250C6H13O2P   !   .ch2/ch2/ch2/ch2/ch2/ch2/o/oh
R251C12H25O4QP   !   .o/o/ch(/ch2/ch2/ch3)/ch2/ch2/ch2/ch2/ch2/ch2/ch2/ch2/o/oh
R252C7H15O2P   !   .ch2/ch2/ch2/ch2/ch2/ch2/ch2/o/oh
R253C12H25O4QP   !   .o/o/ch(/o/oh)/ch2/ch2/ch2/ch2/ch2/ch2/ch2/ch2/ch2/ch2/ch3
R254C12H25O4QP   !   .o/o/ch(/ch2/ch3)/ch2/ch2/ch2/ch2/ch2/ch2/ch2/ch2/ch2/o/oh
R255C8H17O2P   !   .ch2/ch2/ch2/ch2/ch2/ch2/ch2/ch2/o/oh
R256C12H25O4QP   !   .o/o/ch(/ch3)/ch2/ch2/ch2/ch2/ch2/ch2/ch2/ch2/ch2/ch2/o/oh
R257C9H19O2P   !   .ch2/ch2/ch2/ch2/ch2/ch2/ch2/ch2/ch2/o/oh
R258C10H21O4QP   !   .o/o/ch(/ch2/o/oh)/ch2/ch2/ch2/ch2/ch2/ch2/ch2/ch3
R259C10H21O2P   !   .ch(/ch2/ch2/ch2/ch3)/ch2/ch2/ch2/ch2/ch2/o/oh
R260C10H21O2P   !   .ch(/ch2/ch2/ch3)/ch2/ch2/ch2/ch2/ch2/ch2/o/oh
R261C10H21O2P   !   .ch(/ch2/ch3)/ch2/ch2/ch2/ch2/ch2/ch2/ch2/o/oh
R262C10H21O4QP   !   .o/o/ch(/ch2/ch2/o/oh)/ch2/ch2/ch2/ch2/ch2/ch2/ch3
R263C10H21O2P   !   .ch(/ch3)/ch2/ch2/ch2/ch2/ch2/ch2/ch2/ch2/o/oh
R264C10H21O4QP   !   .o/o/ch(/ch2/ch2/ch2/o/oh)/ch2/ch2/ch2/ch2/ch2/ch3
R265C10H21O2P   !   .ch2/ch2/ch2/ch2/ch2/ch2/ch2/ch2/ch2/ch2/o/oh
R266C10H21O4QP   !   .o/o/ch(/ch2/ch2/ch2/ch2/o/oh)/ch2/ch2/ch2/ch2/ch3
R267C10H21O2P   !   .ch(/ch2/ch3)/ch(/o/oh)/ch2/ch2/ch2/ch2/ch2/ch3
R268C10H21O2P   !   .ch(/ch3)/ch2/ch(/o/oh)/ch2/ch2/ch2/ch2/ch2/ch3
R269C10H21O2P   !   .ch2/ch2/ch2/ch(/o/oh)/ch2/ch2/ch2/ch2/ch2/ch3
R270C10H21O2P   !   .ch(/ch(/o/oh)/ch2/ch2/ch3)/ch2/ch2/ch2/ch2/ch3
R271C10H21O2P   !   .ch(/ch2/ch2/ch2/ch3)/ch2/ch(/o/oh)/ch2/ch2/ch3
R272C10H21O2P   !   .ch(/ch2/ch2/ch3)/ch2/ch2/ch(/o/oh)/ch2/ch2/ch3
R273C10H21O2P   !   .ch(/ch2/ch3)/ch2/ch2/ch2/ch(/o/oh)/ch2/ch2/ch3
R274C10H21O2Q   !   .o/o/ch(/ch2/ch3)/ch2/ch2/ch2/ch2/ch2/ch2/ch3
R275C10H21O2Q   !   .o/o/ch(/ch3)/ch2/ch2/ch2/ch2/ch2/ch2/ch2/ch3
R276C10H21O2P   !   .ch(/ch2/ch2/ch3)/ch(/o/oh)/ch2/ch2/ch2/ch2/ch3
R277C10H21O2P   !   .ch(/ch2/ch3)/ch2/ch(/o/oh)/ch2/ch2/ch2/ch2/ch3
R278C10H21O2P   !   .ch(/ch3)/ch2/ch2/ch(/o/oh)/ch2/ch2/ch2/ch2/ch3
R279C10H21O2P   !   .ch2/ch2/ch2/ch2/ch(/o/oh)/ch2/ch2/ch2/ch2/ch3
R280C10H21O2P   !   .ch(/ch2/ch2/ch2/ch3)/ch(/o/oh)/ch2/ch2/ch2/ch3
R281C10H21O2P   !   .ch(/ch2/ch2/ch3)/ch2/ch(/o/oh)/ch2/ch2/ch2/ch3
R282C10H21O2P   !   .ch(/ch2/ch3)/ch2/ch2/ch(/o/oh)/ch2/ch2/ch2/ch3
R283C10H21O2P   !   .ch(/ch3)/ch2/ch2/ch2/ch(/o/oh)/ch2/ch2/ch2/ch3
R284C12H25O4QP   !   .o/o/ch(/ch2/ch2/ch2/ch2/ch3)/ch2/ch2/ch2/ch2/ch(/o/oh)/ch3
R285C5H11O2P   !   .ch2/ch2/ch2/ch(/o/oh)/ch3
R286C12H25O4QP   !   .o/o/ch(/ch2/ch2/ch2/ch3)/ch2/ch2/ch2/ch2/ch2/ch(/o/oh)/ch3
R287C6H13O2P   !   .ch2/ch2/ch2/ch2/ch(/o/oh)/ch3
R288C12H25O4QP   !   .o/o/ch(/ch2/ch2/ch3)/ch2/ch2/ch2/ch2/ch2/ch2/ch(/o/oh)/ch3
R289C7H15O2P   !   .ch2/ch2/ch2/ch2/ch2/ch(/o/oh)/ch3
R290C12H25O4QP   !   .o/o/ch(/ch2/ch3)/ch2/ch2/ch2/ch2/ch2/ch2/ch2/ch(/o/oh)/ch3
R291C8H17O2P   !   .ch2/ch2/ch2/ch2/ch2/ch2/ch(/o/oh)/ch3
R292C12H25O4QP   !   .o/o/c(/o/oh)(/ch3)/ch2/ch2/ch2/ch2/ch2/ch2/ch2/ch2/ch2/ch3
R293C12H25O4QP   !   .o/o/ch(/ch3)/ch2/ch2/ch2/ch2/ch2/ch2/ch2/ch2/ch(/o/oh)/ch3
R294C9H19O2P   !   .ch2/ch2/ch2/ch2/ch2/ch2/ch2/ch(/o/oh)/ch3
R295C3H7O4QP   !   .o/o/ch2/ch(/o/oh)/ch3
R296C3H7O2Q   !   .o/o/ch(/ch3)2
R297C12H25O4QP   !   .o/o/ch2/ch2/ch2/ch2/ch2/ch2/ch2/ch2/ch2/ch2/ch(/o/oh)/ch3
R298C10H21O2P   !   .ch2/ch2/ch2/ch2/ch2/ch2/ch2/ch2/ch(/o/oh)/ch3
R299C4H9O4QP   !   .o/o/ch2/ch2/ch(/o/oh)/ch3
R300C4H9O2Q   !   .o/o/ch(/ch3)/ch2/ch3
R301C9H19O4QP   !   .o/o/ch(/ch2/o/oh)/ch2/ch2/ch2/ch2/ch2/ch2/ch3
R302C9H19O2P   !   .ch(/ch2/ch2/ch3)/ch2/ch2/ch2/ch2/ch2/o/oh
R303C9H19O2P   !   .ch(/ch2/ch3)/ch2/ch2/ch2/ch2/ch2/ch2/o/oh
R304C9H19O2P   !   .ch(/ch3)/ch2/ch2/ch2/ch2/ch2/ch2/ch2/o/oh
R305C9H19O4QP   !   .o/o/ch(/ch2/ch2/o/oh)/ch2/ch2/ch2/ch2/ch2/ch3
R306C9H19O4QP   !   .o/o/ch(/ch2/ch2/ch2/o/oh)/ch2/ch2/ch2/ch2/ch3
R307C9H19O4QP   !   .o/o/ch(/ch2/ch2/ch2/ch3)/ch2/ch2/ch2/ch2/o/oh
R308C9H19O2P   !   .ch(/ch2/ch3)/ch(/o/oh)/ch2/ch2/ch2/ch2/ch3
R309C9H19O2P   !   .ch(/ch3)/ch2/ch(/o/oh)/ch2/ch2/ch2/ch2/ch3
R310C9H19O2P   !   .ch2/ch2/ch2/ch(/o/oh)/ch2/ch2/ch2/ch2/ch3
R311C9H19O2P   !   .ch(/ch2/ch2/ch2/ch3)/ch(/o/oh)/ch2/ch2/ch3
R312C9H19O2P   !   .ch(/ch2/ch2/ch3)/ch2/ch(/o/oh)/ch2/ch2/ch3
R313C9H19O2P   !   .ch(/ch2/ch3)/ch2/ch2/ch(/o/oh)/ch2/ch2/ch3
R314C9H19O2P   !   .ch(/ch3)/ch2/ch2/ch2/ch(/o/oh)/ch2/ch2/ch3
R315C9H19O2Q   !   .o/o/ch(/ch3)/ch2/ch2/ch2/ch2/ch2/ch2/ch3
R316C9H19O2P   !   .ch(/ch2/ch2/ch3)/ch(/o/oh)/ch2/ch2/ch2/ch3
R317C9H19O2P   !   .ch(/ch2/ch3)/ch2/ch(/o/oh)/ch2/ch2/ch2/ch3
R318C9H19O2P   !   .ch(/ch3)/ch2/ch2/ch(/o/oh)/ch2/ch2/ch2/ch3
R319C9H19O2P   !   .ch2/ch2/ch2/ch2/ch(/o/oh)/ch2/ch2/ch2/ch3
R320C9H19O2P   !   .ch(/ch3)/ch(/o/oh)/ch2/ch2/ch2/ch2/ch2/ch3
R321C9H19O2P   !   .ch(/ch(/o/oh)/ch2/ch3)/ch2/ch2/ch2/ch2/ch3
R322C9H19O2P   !   .ch(/ch2/ch2/ch2/ch3)/ch2/ch(/o/oh)/ch2/ch3
R323C9H19O2P   !   .ch(/ch2/ch2/ch3)/ch2/ch2/ch(/o/oh)/ch2/ch3
R324C9H19O2P   !   .ch(/ch2/ch3)/ch2/ch2/ch2/ch(/o/oh)/ch2/ch3
R325C12H25O4QP   !   .o/o/ch(/ch2/ch2/ch2/ch3)/ch2/ch2/ch2/ch2/ch(/o/oh)/ch2/ch3
R326C6H13O2P   !   .ch2/ch2/ch2/ch(/o/oh)/ch2/ch3
R327C10H21O4QP   !   .o/o/ch(/o/oh)/ch2/ch2/ch2/ch2/ch2/ch2/ch2/ch2/ch3
R328C12H25O4QP   !   .o/o/ch(/ch2/ch2/ch3)/ch2/ch2/ch2/ch2/ch2/ch(/o/oh)/ch2/ch3
R329C7H15O2P   !   .ch2/ch2/ch2/ch2/ch(/o/oh)/ch2/ch3
R330C12H25O4QP   !   .o/o/ch(/ch2/ch3)/ch2/ch2/ch2/ch2/ch2/ch2/ch(/o/oh)/ch2/ch3
R331C8H17O2P   !   .ch2/ch2/ch2/ch2/ch2/ch(/o/oh)/ch2/ch3
R332C12H25O4QP   !   .o/o/ch(/ch3)/ch2/ch2/ch2/ch2/ch2/ch2/ch2/ch(/o/oh)/ch2/ch3
R333C9H19O2P   !   .ch2/ch2/ch2/ch2/ch2/ch2/ch(/o/oh)/ch2/ch3
R334C3H7O4QP   !   .o/o/ch(/o/oh)/ch2/ch3
R335C12H25O4QP   !   .o/o/c(/o/oh)(/ch2/ch3)/ch2/ch2/ch2/ch2/ch2/ch2/ch2/ch2/ch3
R336C12H25O4QP   !   .o/o/ch2/ch2/ch2/ch2/ch2/ch2/ch2/ch2/ch2/ch(/o/oh)/ch2/ch3
R337C10H21O2P   !   .ch2/ch2/ch2/ch2/ch2/ch2/ch2/ch(/o/oh)/ch2/ch3
R338C4H9O4QP   !   .o/o/ch2/ch(/o/oh)/ch2/ch3
R339C5H11O4QP   !   .o/o/ch2/ch2/ch(/o/oh)/ch2/ch3
R340C5H11O2Q   !   .o/o/ch(/ch2/ch3)2
R341C5H11O2P   !   .ch(/ch3)/ch(/o/oh)/ch2/ch3
R342C8H17O4QP   !   .o/o/ch(/ch2/o/oh)/ch2/ch2/ch2/ch2/ch2/ch3
R343C8H17O2P   !   .ch(/ch2/ch3)/ch2/ch2/ch2/ch2/ch2/o/oh
R344C8H17O2P   !   .ch(/ch3)/ch2/ch2/ch2/ch2/ch2/ch2/o/oh
R345C8H17O4QP   !   .o/o/ch(/ch2/ch2/o/oh)/ch2/ch2/ch2/ch2/ch3
R346C8H17O4QP   !   .o/o/ch(/ch2/ch2/ch2/o/oh)/ch2/ch2/ch2/ch3
R347C8H17O4QP   !   .o/o/ch(/ch2/ch2/ch3)/ch2/ch2/ch2/ch2/o/oh
R348C8H17O2P   !   .ch(/ch2/ch3)/ch(/o/oh)/ch2/ch2/ch2/ch3
R349C8H17O2P   !   .ch(/ch3)/ch2/ch(/o/oh)/ch2/ch2/ch2/ch3
R350C8H17O2P   !   .ch2/ch2/ch2/ch(/o/oh)/ch2/ch2/ch2/ch3
R351C8H17O2P   !   .ch(/ch2/ch2/ch3)/ch(/o/oh)/ch2/ch2/ch3
R352C8H17O2P   !   .ch(/ch2/ch3)/ch2/ch(/o/oh)/ch2/ch2/ch3
R353C8H17O2P   !   .ch(/ch3)/ch2/ch2/ch(/o/oh)/ch2/ch2/ch3
R354C8H17O2P   !   .ch2/ch2/ch2/ch2/ch(/o/oh)/ch2/ch2/ch3
R355C8H17O2P   !   .ch(/ch3)/ch(/o/oh)/ch2/ch2/ch2/ch2/ch3
R356C8H17O2P   !   .ch(/ch(/o/oh)/ch2/ch3)/ch2/ch2/ch2/ch3
R357C8H17O2P   !   .ch(/ch2/ch2/ch3)/ch2/ch(/o/oh)/ch2/ch3
R358C8H17O2P   !   .ch(/ch2/ch3)/ch2/ch2/ch(/o/oh)/ch2/ch3
R359C8H17O2P   !   .ch(/ch3)/ch2/ch2/ch2/ch(/o/oh)/ch2/ch3
R360C8H17O2P   !   .ch(/ch(/o/oh)/ch3)/ch2/ch2/ch2/ch2/ch3
R361C8H17O2P   !   .ch(/ch2/ch(/o/oh)/ch3)/ch2/ch2/ch2/ch3
R362C8H17O2P   !   .ch(/ch2/ch2/ch3)/ch2/ch2/ch(/o/oh)/ch3
R363C8H17O2P   !   .ch(/ch2/ch3)/ch2/ch2/ch2/ch(/o/oh)/ch3
R364C12H25O4QP   !   .o/o/ch(/ch2/ch2/ch3)/ch2/ch2/ch2/ch2/ch(/o/oh)/ch2/ch2/ch3
R365C7H15O2P   !   .ch2/ch2/ch2/ch(/o/oh)/ch2/ch2/ch3
R366C9H19O4QP   !   .o/o/ch(/o/oh)/ch2/ch2/ch2/ch2/ch2/ch2/ch2/ch3
R367C12H25O4QP   !   .o/o/c(/o/oh)(/ch2/ch2/ch3)/ch2/ch2/ch2/ch2/ch2/ch2/ch2/ch3
R368C10H21O4QP   !   .o/o/ch2/ch(/o/oh)/ch2/ch2/ch2/ch2/ch2/ch2/ch2/ch3
R369C10H21O2P   !   .ch(/ch2/ch(/o/oh)/ch3)/ch2/ch2/ch2/ch2/ch2/ch3
R370C10H21O2P   !   .ch(/ch2/ch2/ch(/o/oh)/ch3)/ch2/ch2/ch2/ch2/ch3
R371C10H21O2P   !   .ch(/ch2/ch2/ch2/ch3)/ch2/ch2/ch2/ch(/o/oh)/ch3
R372C10H21O2P   !   .ch(/ch2/ch2/ch3)/ch2/ch2/ch2/ch2/ch(/o/oh)/ch3
R373C12H25O4QP   !   .o/o/ch(/ch2/ch3)/ch2/ch2/ch2/ch2/ch2/ch(/o/oh)/ch2/ch2/ch3
R374C12H25O4QP   !   .o/o/ch(/ch3)/ch2/ch2/ch2/ch2/ch2/ch2/ch(/o/oh)/ch2/ch2/ch3
R375C9H19O2P   !   .ch2/ch2/ch2/ch2/ch2/ch(/o/oh)/ch2/ch2/ch3
R376C12H25O4QP   !   .o/o/ch2/ch2/ch2/ch2/ch2/ch2/ch2/ch2/ch(/o/oh)/ch2/ch2/ch3
R377C10H21O2P   !   .ch2/ch2/ch2/ch2/ch2/ch2/ch(/o/oh)/ch2/ch2/ch3
R378C5H11O4QP   !   .o/o/ch2/ch(/o/oh)/ch2/ch2/ch3
R379C5H11O2P   !   .ch(/ch3)/ch2/ch(/o/oh)/ch3
R380C6H13O4QP   !   .o/o/ch2/ch2/ch(/o/oh)/ch2/ch2/ch3
R381C6H13O2P   !   .ch(/ch2/ch3)/ch(/o/oh)/ch2/ch3
R382C6H13O2P   !   .ch(/ch3)/ch2/ch(/o/oh)/ch2/ch3
R383C7H15O4QP   !   .o/o/ch(/ch2/o/oh)/ch2/ch2/ch2/ch2/ch3
R384C7H15O2P   !   .ch(/ch3)/ch2/ch2/ch2/ch2/ch2/o/oh
R385C7H15O4QP   !   .o/o/ch(/ch2/ch2/o/oh)/ch2/ch2/ch2/ch3
R386C7H15O4QP   !   .o/o/ch(/ch2/ch2/ch3)/ch2/ch2/ch2/o/oh
R387C7H15O4QP   !   .o/o/ch(/ch2/ch3)/ch2/ch2/ch2/ch2/o/oh
R388C7H15O2P   !   .ch(/ch2/ch3)/ch(/o/oh)/ch2/ch2/ch3
R389C7H15O2P   !   .ch(/ch3)/ch2/ch(/o/oh)/ch2/ch2/ch3
R390C7H15O2P   !   .ch(/ch3)/ch(/o/oh)/ch2/ch2/ch2/ch3
R391C7H15O2P   !   .ch(/ch2/ch2/ch3)/ch(/o/oh)/ch2/ch3
R392C7H15O2P   !   .ch(/ch2/ch3)/ch2/ch(/o/oh)/ch2/ch3
R393C7H15O2P   !   .ch(/ch3)/ch2/ch2/ch(/o/oh)/ch2/ch3
R394C7H15O2P   !   .ch(/ch(/o/oh)/ch3)/ch2/ch2/ch2/ch3
R395C7H15O2P   !   .ch(/ch2/ch2/ch3)/ch2/ch(/o/oh)/ch3
R396C7H15O2P   !   .ch(/ch2/ch3)/ch2/ch2/ch(/o/oh)/ch3
R397C7H15O2P   !   .ch(/ch3)/ch2/ch2/ch2/ch(/o/oh)/ch3
R398C12H25O4QP   !   .o/o/ch(/ch2/ch3)/ch2/ch2/ch2/ch2/ch(/o/oh)/ch2/ch2/ch2/ch3
R399C8H17O4QP   !   .o/o/ch(/o/oh)/ch2/ch2/ch2/ch2/ch2/ch2/ch3
R400C12H25O4QP   !   .o/o/c(/o/oh)(/ch2/ch2/ch2/ch3)/ch2/ch2/ch2/ch2/ch2/ch2/ch3
R401C9H19O4QP   !   .o/o/ch2/ch(/o/oh)/ch2/ch2/ch2/ch2/ch2/ch2/ch3
R402C9H19O2P   !   .ch(/ch2/ch(/o/oh)/ch3)/ch2/ch2/ch2/ch2/ch3
R403C9H19O2P   !   .ch(/ch2/ch2/ch2/ch3)/ch2/ch2/ch(/o/oh)/ch3
R404C9H19O2P   !   .ch(/ch2/ch2/ch3)/ch2/ch2/ch2/ch(/o/oh)/ch3
R405C9H19O2P   !   .ch(/ch2/ch3)/ch2/ch2/ch2/ch2/ch(/o/oh)/ch3
R406C10H21O4QP   !   .o/o/ch2/ch2/ch(/o/oh)/ch2/ch2/ch2/ch2/ch2/ch2/ch3
R407C10H21O2P   !   .ch(/ch(/o/oh)/ch2/ch3)/ch2/ch2/ch2/ch2/ch2/ch3
R408C10H21O2P   !   .ch(/ch2/ch(/o/oh)/ch2/ch3)/ch2/ch2/ch2/ch2/ch3
R409C10H21O2P   !   .ch(/ch2/ch2/ch2/ch3)/ch2/ch2/ch(/o/oh)/ch2/ch3
R410C10H21O2P   !   .ch(/ch2/ch2/ch3)/ch2/ch2/ch2/ch(/o/oh)/ch2/ch3
R411C12H25O4QP   !   .o/o/ch(/ch3)/ch2/ch2/ch2/ch2/ch2/ch(/o/oh)/ch2/ch2/ch2/ch3
R412C12H25O4QP   !   .o/o/ch2/ch2/ch2/ch2/ch2/ch2/ch2/ch(/o/oh)/ch2/ch2/ch2/ch3
R413C10H21O2P   !   .ch2/ch2/ch2/ch2/ch2/ch(/o/oh)/ch2/ch2/ch2/ch3
R414C5H11O4QP   !   .o/o/ch(/o/oh)/ch2/ch2/ch2/ch3
R415C6H13O4QP   !   .o/o/ch2/ch(/o/oh)/ch2/ch2/ch2/ch3
R416C6H13O2P   !   .ch(/ch2/ch3)/ch2/ch(/o/oh)/ch3
R417C6H13O2P   !   .ch(/ch3)/ch2/ch2/ch(/o/oh)/ch3
R418C7H15O4QP   !   .o/o/ch2/ch2/ch(/o/oh)/ch2/ch2/ch2/ch3
R419C6H13O4QP   !   .o/o/ch(/ch2/o/oh)/ch2/ch2/ch2/ch3
R420C6H13O4QP   !   .o/o/ch(/ch2/ch2/o/oh)/ch2/ch2/ch3
R421C6H13O4QP   !   .o/o/ch(/ch2/ch3)/ch2/ch2/ch2/o/oh
R422C6H13O4QP   !   .o/o/ch(/ch3)/ch2/ch2/ch2/ch2/o/oh
R423C6H13O2P   !   .ch(/ch3)/ch(/o/oh)/ch2/ch2/ch3
R424C6H13O2P   !   .ch(/ch(/o/oh)/ch3)/ch2/ch2/ch3
R425C12H25O4QP   !   .o/o/ch2/ch2/ch2/ch2/ch2/ch(/o/oh)/ch2/ch2/ch2/ch2/ch2/ch3
R426C12H25O4QP   !   .o/o/ch(/ch3)/ch2/ch2/ch2/ch2/ch(/o/oh)/ch2/ch2/ch2/ch2/ch3
R427C7H15O4QP   !   .o/o/ch(/o/oh)/ch2/ch2/ch2/ch2/ch2/ch3
R428C12H25O4QP   !   .o/o/c(/o/oh)(/ch2/ch2/ch2/ch2/ch3)/ch2/ch2/ch2/ch2/ch2/ch3
R429C8H17O4QP   !   .o/o/ch2/ch(/o/oh)/ch2/ch2/ch2/ch2/ch2/ch3
R430C8H17O2P   !   .ch(/ch3)/ch2/ch2/ch2/ch2/ch(/o/oh)/ch3
R431C9H19O4QP   !   .o/o/ch2/ch2/ch(/o/oh)/ch2/ch2/ch2/ch2/ch2/ch3
R432C12H25O4QP   !   .o/o/ch2/ch2/ch2/ch2/ch2/ch2/ch(/o/oh)/ch2/ch2/ch2/ch2/ch3
R433C6H13O4QP   !   .o/o/ch(/o/oh)/ch2/ch2/ch2/ch2/ch3
R434C7H15O4QP   !   .o/o/ch2/ch(/o/oh)/ch2/ch2/ch2/ch2/ch3
R435C8H17O4QP   !   .o/o/ch2/ch2/ch(/o/oh)/ch2/ch2/ch2/ch2/ch3
R436C5H11O4QP   !   .o/o/ch(/ch2/o/oh)/ch2/ch2/ch3
R437C5H11O4QP   !   .o/o/ch(/ch2/ch3)/ch2/ch2/o/oh
R438C5H11O4QP   !   .o/o/ch(/ch3)/ch2/ch2/ch2/o/oh
R439C5H11O4QP   !   .o/o/ch2/ch2/ch2/ch2/ch2/o/oh
R440C5H11O2P   !   .ch(/ch2/ch3)/ch(/o/oh)/ch3
R441C12H25O4QP   !   .o/o/ch2/ch2/ch2/ch2/ch2/ch2/ch2/ch2/ch2/ch2/ch2/ch2/o/oh
R442C6H13O4QP   !   .o/o/ch2/ch2/ch2/ch2/ch2/ch2/o/oh
R443C7H15O4QP   !   .o/o/ch2/ch2/ch2/ch2/ch2/ch2/ch2/o/oh
R444C8H17O4QP   !   .o/o/ch2/ch2/ch2/ch2/ch2/ch2/ch2/ch2/o/oh
R445C9H19O4QP   !   .o/o/ch2/ch2/ch2/ch2/ch2/ch2/ch2/ch2/ch2/o/oh
R446C10H21O4QP   !   .o/o/ch(/ch2/ch2/ch2/ch3)/ch2/ch2/ch2/ch2/ch2/o/oh
R447C10H21O4QP   !   .o/o/ch(/ch2/ch2/ch3)/ch2/ch2/ch2/ch2/ch2/ch2/o/oh
R448C10H21O4QP   !   .o/o/ch(/ch2/ch3)/ch2/ch2/ch2/ch2/ch2/ch2/ch2/o/oh
R449C10H21O4QP   !   .o/o/ch(/ch3)/ch2/ch2/ch2/ch2/ch2/ch2/ch2/ch2/o/oh
R450C10H21O4QP   !   .o/o/ch2/ch2/ch2/ch2/ch2/ch2/ch2/ch2/ch2/ch2/o/oh
R451C10H21O4QP   !   .o/o/ch(/ch2/ch3)/ch(/o/oh)/ch2/ch2/ch2/ch2/ch2/ch3