THERMO
   300.000  1000.000  5000.000
N2      Ranzi          0N   2C   0H   0O   0G  0300.00   5000.00  1000.00      1
 0.29266379E+01 0.14879770E-02-0.56847603E-06 0.10097040E-09-0.67533509E-14    2
-0.92279538E+03 0.59805402E+01 0.32986770E+01 0.14082399E-02-0.39632218E-05    3
 0.56415148E-08-0.24448540E-11-0.10209000E+04 0.39503720E+01                   4
HE      Ranzi          0HE  2C   0H   0O   0G  0300.00   5000.00  1000.00      1
 0.31250001E+01-0.14062505E-02 0.93750049E-06-0.15625008E-09 0.00000000E+00    2
-0.94068758E+03-0.24124152E+01 0.25000000E+01 0.00000000E+00 0.00000000E+00    3
 0.00000000E+00 0.00000000E+00-0.74537510E+03 0.91534890E+00                   4
AR                120186AR  1               G  0300.00   5000.00  1000.00      1
 0.25000000E+01 0.00000000E+00 0.00000000E+00 0.00000000E+00 0.00000000E+00    2
-0.74537500E+03 0.43660010E+01 0.25000000E+01 0.00000000E+00 0.00000000E+00    3
 0.00000000E+00 0.00000000E+00-0.74537500E+03 0.43660010E+01                   4
B1O                     O   1               G  0300.00   5000.00  1000.00      1
 0.25420608E+01-0.27550620E-04-0.31028030E-08 0.45510670E-11-0.43680520E-15    2
 0.29230798E+05 0.49203024E+01 0.29464290E+01-0.16381660E-02 0.24210320E-05    3
-0.16028430E-08 0.38906960E-12 0.29147640E+05 0.29639950E+01                   4
B2CO                    C   1O   1          G  0300.00   5000.00  1000.00      1
 0.30250777E+01 0.14426890E-02-0.56308280E-06 0.10185810E-09-0.69109520E-14    2
-0.14268350E+05 0.61082221E+01 0.32624520E+01 0.15119410E-02-0.38817550E-05    3
 0.55819440E-08-0.24749510E-11-0.14310540E+05 0.48488970E+01                   4
B3C                     C   1               G  0300.00   5000.00  1000.00      1
 0.26020867E+01-0.17870810E-03 0.90870410E-07-0.11499330E-10 0.33108440E-15    2
 0.85421542E+05 0.41951820E+01 0.24985850E+01 0.80857770E-04-0.26976970E-06    3
 0.30407290E-09-0.11066520E-12 0.85458780E+05 0.47534590E+01                   4
B4CH                    C   1H   1          G  0300.00   5000.00  1000.00      1
 0.21962223E+01 0.23403810E-02-0.70582010E-06 0.90075820E-10-0.38550400E-14    2
 0.70867231E+05 0.91783754E+01 0.32002020E+01 0.20728760E-02-0.51344310E-05    3
 0.57338900E-08-0.19555330E-11 0.70452590E+05 0.33315880E+01                   4
B5CH2       CH2t        C   1H   2          G  0300.00   5000.00  1000.00      1
 0.36364065E+01 0.19330570E-02-0.16870160E-06-0.10098990E-09 0.18082560E-13    2
 0.45341345E+05 0.21565691E+01 0.37622370E+01 0.11598190E-02 0.24895850E-06    3
 0.88008360E-09-0.73324350E-12 0.45367910E+05 0.17125780E+01                   4
B6CH2       CH2s        C   1H   2          G  0300.00   5000.00  1000.00      1
 0.35528875E+01 0.20667880E-02-0.19141160E-06-0.11046730E-09 0.20213500E-13    2
 0.49849761E+05 0.16865777E+01 0.39712650E+01-0.16990890E-03 0.10253690E-05    3
 0.24925510E-08-0.19812660E-11 0.49893680E+05 0.57532070E-01                   4
H2                      C   0H   2O   0     G  0300.00   5000.00  1000.00      1
 0.24971474E+01 0.17808300E-02-0.78001300E-06 0.14843700E-09-0.10340100E-13    2
-0.68234235E+03 0.12869436E+01 0.34385300E+01 0.14431400E-03-0.10819100E-06    3
 0.21683900E-09-0.55430700E-13-0.10374900E+04-0.39268200E+01                   4
H2O                     C   0H   2O   1     G  0300.00   5000.00  1000.00      1
 0.26801061E+01 0.30962300E-02-0.93139300E-06 0.13486500E-09-0.77000700E-14    2
-0.29923344E+05 0.67805263E+01 0.39755900E+01-0.44183400E-03 0.24559600E-05    3
-0.12443100E-08 0.22670200E-12-0.30281000E+05 0.77152300E-01                   4
O2                      C   0H   0O   2     G  0300.00   5000.00  1000.00      1
 0.31892691E+01 0.15665700E-02-0.69065700E-06 0.13208200E-09-0.92357700E-14    2
-0.10481021E+04 0.59950619E+01 0.30880900E+01 0.16034200E-02-0.53455000E-06    3
 0.28079300E-10 0.29889900E-14-0.99382800E+03 0.66106900E+01                   4
H2O2                    C   0H   2O   2     G  0300.00   5000.00  1000.00      1
 0.52103334E+01 0.30782000E-02-0.84778600E-06 0.11486700E-09-0.62443600E-14    2
-0.18181356E+05-0.28638425E+01 0.27972400E+01 0.93080600E-02-0.32708100E-05    3
-0.39185300E-08 0.26334100E-11-0.17595100E+05 0.94714200E+01                   4
CH4                     C   1H   4O   0     G  0300.00   5000.00  1000.00      1
 0.16013888E+01 0.10308000E-01-0.37122800E-05 0.61418500E-09-0.38674800E-13    2
-0.10056328E+05 0.10117762E+02 0.23195400E+01 0.65473800E-02-0.74805100E-06    3
 0.26091200E-08-0.19553700E-11-0.99976400E+04 0.72496500E+01                   4
HCHO                    C   1H   2O   1     G  0300.00   5000.00  1000.00      1
 0.28983380E+01 0.66440700E-02-0.24528200E-05 0.41283600E-09-0.26304000E-13    2
-0.15266747E+05 0.75470802E+01 0.24104900E+01 0.70204100E-02-0.42294700E-05    3
 0.44011600E-08-0.21264700E-11-0.14951900E+05 0.10624600E+02                   4
CH3OH                   C   1H   4O   1     G  0300.00   5000.00  1000.00      1
 0.32627246E+01 0.10543200E-01-0.35491800E-05 0.55874300E-09-0.33923600E-13    2
-0.25878233E+05 0.67000165E+01 0.18595700E+01 0.12531200E-01-0.44710700E-05    3
 0.17329300E-08-0.87106600E-12-0.25287900E+05 0.14683500E+02                   4
CO2                     C   1H   0O   2     G  0300.00   5000.00  1000.00      1
 0.27283750E+01 0.60991400E-02-0.28175500E-05 0.55728200E-09-0.39947000E-13    2
-0.48253827E+05 0.87419715E+01 0.26784400E+01 0.63115900E-02 0.12097500E-05    3
-0.74664700E-08 0.37939900E-11-0.48413400E+05 0.85769100E+01                   4
CH3OOH                  C   1H   4O   2     G  0300.00   5000.00  1000.00      1
 0.63680096E+01 0.10737200E-01-0.36866600E-05 0.58882700E-09-0.36126600E-13    2
-0.18426159E+05-0.60734207E+01 0.30921800E+01 0.18022300E-01-0.71186200E-05    3
-0.14797800E-08 0.14551700E-11-0.17430000E+05 0.11302800E+02                   4
C2H2T                   C   2H   2O   0     G  0300.00   5000.00  1000.00      1
 0.29929420E+01 0.75847600E-02-0.31100800E-05 0.56431200E-09-0.37957000E-13    2
 0.26257185E+05 0.53646047E+01 0.25459300E+01 0.11400700E-01-0.70712300E-05    3
-0.60036300E-09 0.17189400E-11 0.26056400E+05 0.65660900E+01                   4
C2H4Z                   C   2H   4O   0     G  0300.00   5000.00  1000.00      1
 0.37248280E+00 0.16729900E-01-0.68090900E-05 0.12292200E-08-0.82392800E-13    2
 0.56647139E+04 0.19961034E+02 0.13181000E+01 0.14446000E-01-0.27433500E-05    3
-0.31083500E-08 0.15277200E-11 0.52681700E+04 0.14723300E+02                   4
C2H6                    C   2H   6O   0     G  0300.00   5000.00  1000.00      1
 0.36983450E+00 0.21192800E-01-0.80856000E-05 0.13933900E-08-0.90300500E-13    2
-0.11047128E+05 0.19804396E+02 0.97545400E+00 0.18811000E-01-0.14645300E-05    3
-0.63824700E-08 0.28406700E-11-0.11311100E+05 0.16551400E+02                   4
CH2COZ                  C   2H   2O   1     G  0300.00   5000.00  1000.00      1
 0.53510982E+01 0.69420900E-02-0.25006100E-05 0.41323100E-09-0.25969200E-13    2
-0.78085131E+04-0.37920071E+01 0.29953900E+01 0.12354000E-01-0.40649900E-05    3
-0.33460800E-08 0.22415200E-11-0.71509700E+04 0.85371600E+01                   4
CH3CHO                 0C   2H   4O   1     G  0300.00   5000.00  1000.00      1
 0.39874700E+01 0.10794000E-01-0.36460000E-05 0.54130000E-09-0.28970000E-13    2
-0.20783068E+05 0.72463024E+01-0.59784200E+02 0.48905900E+00-0.12714300E-02    3
 0.14213500E-05-0.56754700E-09-0.15247800E+05 0.27166900E+03                   4
 !coefficients de CHEMKIN a haute temperature et THERGAS a basse temperature!
C2H5OH                  C   2H   6O   1     G  0300.00   5000.00  1000.00      1
 0.56164566E+01 0.15991600E-01-0.53679900E-05 0.84342200E-09-0.51140600E-13    2
-0.31041092E+05-0.35594342E+01 0.93985800E+00 0.26181100E-01-0.92513400E-05    3
-0.34582500E-08 0.26209800E-11-0.29623800E+05 0.21263400E+02                   4
C2H5OOH                 C   2H   6O   2     G  0300.00   5000.00  1000.00      1
 0.88514772E+01 0.14699100E-01-0.46663000E-05 0.70312900E-09-0.41326200E-13    2
-0.23452357E+05-0.17367764E+02 0.20326600E+01 0.32031000E-01-0.17977300E-04    3
 0.23876600E-08 0.10720600E-11-0.21506300E+05 0.18218700E+02                   4
CH3COOOH                C   2H   4O   3     G  0300.00   5000.00  1000.00      1
 0.78670144E+01 0.14240000E-01-0.48164800E-05 0.76239600E-09-0.46551400E-13    2
-0.43975651E+05-0.96455346E+01 0.21956900E+00 0.35313100E-01-0.22427600E-04    3
 0.32288800E-08 0.16724300E-11-0.41954800E+05 0.29661700E+02                   4
! Ajout produits en C2+
!C3H4                   0C   3H   4          G  0300.00   5000.00  1000.00
! .54693928E+01  .12151568E-01 -.43443515E-05 .71433565E-09  -.44747395E-13
! .19852377E+05 -.54474335E+01  .22271647E+01 .19307628E-01  -.70081351E-05
!-.27282026E-08  .21393857E-11  .20828311E+05 .11726395E+02
C3H6Y                  0C   3H   6          G  0300.00   5000.00  1000.00      1
 0.49872203E+01 0.17638993E-01-0.62266308E-05 0.10151433E-08-0.63235977E-13    2
-0.25513278E+03-0.23657645E+01 0.55598283E+00 0.27091531E-01-0.10752104E-04    3
-0.97539210E-09 0.14314721E-11 0.11570190E+04 0.21344173E+02                   4
C3H8                   0C   3H   8          G  0300.00   5000.00  1000.00      1
 0.54507892E+01 0.22160569E-01-0.77296281E-05 0.12495476E-08-0.77377605E-13    2
-0.15616278E+05-0.61404570E+01-0.31831896E+00 0.34746405E-01-0.12885018E-04    3
-0.35057037E-08 0.30165358E-11-0.13851594E+05 0.24514595E+02                   4
!C4H2                   0C   4H   2          G  0300.00   5000.00  1000.00
! .82167263E+01  .75165699E-02  -.28333620E-05 .48376197E-09 -.31125981E-13
! .53914359E+05 -.19323837E+02   .45411844E+01 .16946664E-01 -.58588685E-05
!-.70578716E-08  .47811238E-11   .54806316E+05-.54062080E+00
!C4H4                   0C   4H   4          G  0300.00   5000.00  1000.00
! .74600129E+01  .13268776E-01  -.48047741E-05 .79804358E-09 -.50392033E-13
! .33450691E+05 -.13594856E+02   .18884374E+01 .27130427E-01 -.11816426E-04
!-.46318047E-08  .40962659E-11   .34956789E+05 .15309685E+02
C4H6Z2                 0C   4H   6          G  0300.00   5000.00  1000.00      1
 0.80531918E+01 0.17540889E-01-0.61760657E-05 0.10047656E-08-0.62479542E-13    2
 0.95684505E+04-0.18621006E+02-0.29224473E+00 0.38725201E-01-0.16706719E-04    3
-0.81080902E-08 0.67421541E-11 0.11749236E+05 0.24444702E+02                   4
C4H8Y                  0C   4H   8          G  0300.00   5000.00  1000.00      1
 0.92846959E+01 0.19871462E-01-0.65713975E-05 0.10258888E-08-0.62160394E-13    2
-0.46494721E+04-0.24153239E+02-0.25869742E+00 0.41475497E-01-0.21317686E-04    3
 0.27918821E-08 0.85749311E-12-0.16180958E+04 0.26720718E+02                   4
C4H10                  0C   4H  10          G  0300.00   5000.00  1000.00      1
 0.76947071E+01 0.27767614E-01-0.96156327E-05 0.15456056E-08-0.95281279E-13    2
-0.19406615E+05-0.16133800E+02 0.59979584E-01 0.44005580E-01-0.15532127E-04    3
-0.52806315E-08 0.40442116E-11-0.17040045E+05 0.24565849E+02                   4
C2H3CHOZ               0C   3H   4O   1     G  0300.00   5000.00  1000.00      1
 0.12217825E+02 0.12961588E-01-0.61774654E-05 0.12501405E-08-0.91169971E-13    2
-0.15124886E+05-0.41653439E+02 0.93137437E+00 0.35574418E-01-0.33347264E-04    3
 0.28398034E-07-0.11395644E-10-0.10614329E+05 0.21059492E+02                   4
C2H5CHO                0C   3H   6O   1     G  0300.00   5000.00  1000.00      1
 0.69979400E+01 0.18013448E-01-0.62295217E-05 0.10005839E-08-0.61661722E-13    2
-0.25678625E+05-0.94601873E+01 0.28277023E+01 0.25430365E-01-0.61913220E-05    3
-0.50245177E-08 0.26785609E-11-0.24271348E+05 0.13234089E+02                   4
!CH3OCH3                0C   2H   6O   1     G  0300.00   5000.00  1000.00
!  .48582563E+01  .17240373E-01 -.59518788E-05  .95503494E-09 -.58825550E-13
! -.24755031E+05 -.13852615E+01  .20368140E+01  .21299208E-01 -.51627690E-05
! -.20305686E-08  .88250571E-12 -.23667908E+05  .14411049E+02
!CH3OOCH3               0C   2H   6O   2     G  0300.00   5000.00  1000.00
!  .83690472E+01  .14833436E-01 -.46565133E-05  .69703088E-09 -.40832690E-13
! -.18533230E+05 -.15578167E+02  .30638237E+01  .28614834E-01 -.24377980E-04
!  .19129631E-07 -.72663607E-11 -.16707926E+05  .12810528E+02
C3H7OH                 0C   3H   8O   1     G  0300.00   5000.00  1000.00      1
 0.71550135E+01 0.22466624E-01-0.76292372E-05 0.12097231E-08-0.73884075E-13    2
-0.34674318E+05-0.94533208E+01 0.12350693E+01 0.34453284E-01-0.10589133E-04    3
-0.54856804E-08 0.35146994E-11-0.32804938E+05 0.22268148E+02                   4
C2H6CO                 0C   3H   6O   1     G  0300.00   5000.00  1000.00      1
 0.59760364E+01 0.19679097E-01-0.70154574E-05 0.11513579E-08-0.72035416E-13    2
-0.29341092E+05-0.53765277E+01 0.14577827E+01 0.28063715E-01-0.90218518E-05    3
-0.24536706E-08 0.16730232E-11-0.27794104E+05 0.19218454E+02                   4
C3H8CO                 0C   4H   8O   1     G  0300.00   5000.00  1000.00      1
 0.87691958E+01 0.24174010E-01-0.83446403E-05 0.13376648E-08-0.82271822E-13    2
-0.32998668E+05-0.17683410E+02 0.27316518E+01 0.35815358E-01-0.11085016E-04    3
-0.44516226E-08 0.28435873E-11-0.31006189E+05 0.14949604E+02                   4
!CH3COCHO               0C   3H   4O   2     G  0300.00   5000.00  1000.00
!  .89256687E+01  .13401341E-01 -.45334914E-05  .71644690E-09 -.43629983E-13
! -.36391773E+05 -.23305817E+02  .36583393E+01  .17818777E-01  .12335082E-04
! -.25004601E-07  .96781515E-11 -.34470117E+05  .63711262E+01
!CH3COCH2OH             0C   3H   6O   2     G  0300.00   5000.00  1000.00
!  .18422323E+02  .15847507E-02  .22200786E-05 -.75747592E-09  .68857395E-13
! -.52232094E+05 -.69094208E+02  .29494412E+01  .29086677E-01 -.10206494E-04
! -.26419480E-09  .92838457E-13 -.46496102E+05  .16329613E+02
!CH3COCOCH3             0C   4H   6O   2     G  0300.00   5000.00  1000.00
!  .10088178E+02  .20814884E-01 -.72801195E-05  .11796960E-08 -.73203515E-13
! -.44156449E+05 -.21426254E+02  .20524170E+01  .39215170E-01 -.16422011E-04
! -.39475361E-08  .38206075E-11 -.41770484E+05  .20989098E+02
R1H                     C   0H   1O   0     G  0300.00   5000.00  1000.00      1
 0.25138341E+01 0.40918900E-05-0.24108200E-08 0.57187400E-12-0.47091700E-16    2
 0.25465395E+05-0.53483352E+00 0.25198400E+01-0.25992000E-04 0.62789800E-07    3
-0.62995100E-10 0.22397300E-13 0.25464100E+05-0.56325900E+00                   4
R2OH                    C   0H   1O   1     G  0300.00   5000.00  1000.00      1
 0.30414122E+01 0.65138500E-03-0.19121800E-07-0.10419600E-12 0.40033000E-16    2
 0.39041469E+04 0.48177896E+01 0.36778000E+01-0.21415300E-03 0.57023100E-07    3
 0.17140400E-09-0.18462900E-13 0.36359700E+04 0.11967000E+01                   4
R3OOH                   C   0H   1O   2     G  0300.00   5000.00  1000.00      1
 0.47320384E+01 0.13862200E-02-0.16845700E-06 0.10584300E-10-0.24071700E-15    2
-0.25323960E+03-0.76677917E+00 0.18485400E+01 0.10798800E-01-0.85463500E-05    3
 0.41841500E-09 0.14407400E-11 0.32644600E+03 0.13431900E+02                   4
!R3OOH                   C   0H   1O   2     G  0300.00   5000.00  1000.00
! 0.52347851E+01 0.77814487E-03-0.70662331E-07 0.54676693E-11-0.28544852E-15
!-0.29590332E+02-0.36773567E+01 0.14897960E+01 0.13534530E-01-0.15868774E-04
! 0.86208445E-08-0.18269988E-11 0.81474207E+03 0.14919666E+02
R4CH3                   C   1H   3O   0     G  0300.00   5000.00  1000.00      1
 0.10071190E+01 0.94964100E-02-0.38286000E-05 0.68649800E-09-0.45790000E-13    2
 0.16782249E+05 0.15438068E+02 0.29497400E+01 0.51194000E-02-0.87533400E-06    3
 0.66422400E-09-0.54239300E-12 0.16148600E+05 0.50508700E+01                   4
R5CHO                   C   1H   1O   1     G  0300.00   5000.00  1000.00      1
 0.36073098E+01 0.28745262E-02-0.98788814E-06 0.15840323E-09-0.97735176E-14    2
 0.32342028E+04 0.54449718E+01 0.35340273E+01 0.20234731E-02 0.51834081E-06    3
-0.37246076E-09-0.60802857E-13 0.33738574E+04 0.62388401E+01                   4
R6CH2OH                 C   1H   3O   1     G  0300.00   5000.00  1000.00      1
 0.59488653E+01 0.36190501E-02-0.61752752E-06 0.59083634E-10-0.25698620E-14    2
-0.36338402E+04-0.62813047E+01 0.21966424E+01 0.12963202E-01-0.12844380E-04    3
 0.99145598E-08-0.32231225E-11-0.22978342E+04 0.13927387E+02                   4
R7CH3O                  C   1H   3O   1     G  0300.00   5000.00  1000.00      1
 0.64455491E+01 0.32218200E-02-0.50980100E-06 0.44196600E-10-0.16936600E-14    2
-0.81072981E+03-0.12161207E+02 0.24057100E+00 0.18774700E-01-0.21318000E-04    3
 0.18115100E-07-0.66123000E-11 0.13582700E+04 0.21181500E+02                   4
R8CH3OO                 C   1H   3O   2     G  0300.00   5000.00  1000.00      1
 0.97570050E+01 0.30427600E-02-0.46705400E-06 0.38783300E-10-0.13942500E-14    2
-0.19046129E+04-0.26874937E+02 0.14893700E+01 0.24077600E-01-0.23874800E-04    3
 0.15153500E-07-0.44755700E-11 0.76434000E+03 0.16985200E+02                   4
!R8CH3OO                 C   1H   3O   2     G  0300.00   5000.00  1000.00
! 0.80223064E+01 0.54452606E-02-0.12291885E-05 0.14579345E-09-0.73380904E-14
!-0.64005859E+03-0.16948795E+02 0.17759221E+01 0.21917336E-01-0.18158402E-04
! 0.88169347E-08-0.19743768E-11 0.12389817E+04 0.15793612E+02
R9C2HT                  C   2H   1O   0     G  0300.00   5000.00  1000.00      1
 0.40394303E+01 0.36123355E-02-0.95946029E-06 0.12793372E-09-0.69526612E-14    2
 0.65952283E+05 0.20001883E+01 0.17718196E+01 0.17070146E-01-0.20073590E-04    3
 0.88779526E-08-0.83304159E-12 0.65840078E+05 0.11053392E+02                   4
R10C2H3V                C   2H   3O   0     G  0300.00   5000.00  1000.00      1
 0.50727923E+01 0.54012556E-02-0.12119358E-05 0.14271406E-09-0.71272656E-14    2
 0.33707740E+05-0.30985539E+01 0.12316554E+01 0.14659354E-01-0.95136020E-05    3
 0.36466949E-08-0.62640339E-12 0.34934910E+05 0.17314640E+02                   4
R11C2H5                 C   2H   5O   0     G  0300.00   5000.00  1000.00      1
 0.35019849E+01 0.12614300E-01-0.36573000E-05 0.51664200E-09-0.29046900E-13    2
 0.12403884E+05 0.54466514E+01 0.54658000E+00 0.20436800E-01-0.11669400E-04    3
 0.48254100E-08-0.11928100E-11 0.13274300E+05 0.20900100E+02                   4
R12CHCOV                C   2H   1O   1     G  0300.00   5000.00  1000.00      1
 0.67580728E+01 0.20004000E-02-0.20276070E-06-0.10411320E-09 0.19651650E-13    2
 0.19015137E+05-0.90712611E+01 0.50479650E+01 0.44534780E-02 0.22682830E-06    3
-0.14820950E-08 0.22507420E-12 0.19658920E+05 0.48184390E+00                   4
R13CH2CHO               C   2H   3O   1     G  0300.00   5000.00  1000.00      1
 0.47557600E+01 0.81310000E-02-0.27440000E-05 0.40700000E-09-0.21760000E-13    2
 0.22377753E+04 0.29498346E+01-0.54904000E+02 0.45125300E+00-0.11703700E-02    3
 0.13037500E-05-0.51920100E-09 0.75453000E+04 0.25110300E+03                   4
 !coefficients de CHEMKIN a haute temperature et THERGAS a basse temperature!
R14CH3CO                C   2H   3O   1     G  0300.00   5000.00  1000.00      1
 0.10949532E+02 0.54414349E-03-0.15865876E-07-0.23107392E-12 0.46252823E-16    2
-0.60857281E+04-0.33427422E+02 0.38579266E+01 0.54023149E-02 0.94996667E-05    3
-0.93490025E-08 0.20667194E-11-0.26711941E+04 0.85433064E+01                   4
R15C2H5O                C   2H   5O   1     G  0300.00   5000.00  1000.00      1
 0.87906851E+01 0.83791700E-02-0.19344600E-05 0.22937100E-09-0.11319100E-13    2
-0.60285190E+04-0.22314638E+02-0.60009300E+00 0.31767000E-01-0.24258600E-04    3
 0.10813700E-07-0.22685600E-11-0.30849100E+04 0.27365000E+02                   4
R16C2H4OOH              C   2H   5O   2     G  0300.00   5000.00  1000.00      1
 0.98523206E+01 0.10040573E-01-0.24779133E-05 0.31358741E-09-0.16472921E-13    2
 0.79572587E+03-0.20532601E+02 0.11050612E+01 0.41490670E-01-0.47184953E-04    3
 0.30393178E-07-0.80918614E-11 0.28154634E+04 0.22787066E+02                   4
R17C2H5OO               C   2H   5O   2     G  0300.00   5000.00  1000.00      1
 0.11317384E+02 0.82862500E-02-0.18620300E-05 0.21820900E-09-0.10786800E-13    2
-0.69786387E+04-0.32893885E+02 0.67205600E+00 0.36275700E-01-0.30000800E-04    3
 0.13847900E-07-0.28458300E-11-0.37888600E+04 0.22886900E+02                   4
!R17C2H5OO               C   2H   5O   2     G  0300.00   5000.00  1000.00
! 0.91485682E+01 0.11469599E-01-0.30378105E-05 0.40154724E-09-0.21543680E-13
!-0.53995205E+04-0.20566391E+02 0.75042182E+00 0.35625994E-01-0.28113511E-04
! 0.11570777E-07-0.18778768E-11-0.31420464E+04 0.22568413E+02
R18CH3COOO              C   2H   3O   3     G  0300.00   5000.00  1000.00      1
 0.58289108E+01 0.14517937E-01-0.45853781E-05 0.69238965E-09-0.40972888E-13    2
-0.24628644E+05 0.41316311E+00-0.10923432E+01 0.39162144E-01-0.33321889E-04    3
 0.13345456E-07-0.16804813E-11-0.23286021E+05 0.34139729E+02                   4
R19C3H7                 C   3H   7O   0     G  0300.00   5000.00  1000.00      1
 0.49242144E+01 0.19549200E-01-0.60986200E-05 0.90898600E-09-0.53099400E-13    2
 0.97114243E+04 0.13299184E+00-0.99704900E+00 0.42263700E-01-0.36768300E-04    3
 0.18398500E-07-0.36661700E-11 0.10848900E+05 0.28729400E+02                   4
R20C4H9                 C   4H   9O   0     G  0300.00   5000.00  1000.00      1
 0.70528222E+01 0.25322100E-01-0.80453100E-05 0.12138300E-08-0.71451200E-13    2
 0.55184302E+04-0.91858723E+01-0.50611900E+00 0.50722100E-01-0.37439800E-04    3
 0.14596600E-07-0.19007900E-11 0.71957100E+04 0.28323100E+02                   4
R21CH3OCO               C   2H   3O   2     G  0300.00   5000.00  1000.00      1
 0.93943954E+01 0.74243200E-02-0.26564100E-05 0.42503100E-09-0.25182400E-13    2
-0.23221392E+05-0.21236261E+02 0.41621500E+01 0.13803700E-01-0.30848600E-06    3
-0.45643000E-08 0.14690900E-11-0.21013000E+05 0.86430100E+01                   4
C12H26-1                C  12H  26O   0     G  0300.00   5000.00  1000.00      1
 0.22865521E+02 0.76837689E-01-0.26829402E-04 0.43655031E-08-0.27292144E-12    2
-0.47047089E+05-0.81857150E+02-0.27496460E+00 0.12811454E+00-0.43664175E-04    3
-0.23776966E-07 0.16567955E-10-0.40265996E+05 0.40302799E+02                   4
C4H8Y                   C   4H   8O   0     G  0300.00   5000.00  1000.00      1
 0.66183031E+01 0.24037426E-01-0.85048041E-05 0.13961984E-08-0.87795283E-13    2
-0.49271530E+04-0.10172903E+02 0.13099357E+01 0.34782715E-01-0.12483845E-04    3
-0.20726512E-08 0.19231736E-11-0.32000645E+04 0.18393772E+02                   4
C4H10                   C   4H  10O   0     G  0300.00   5000.00  1000.00      1
 0.74689869E+01 0.28351745E-01-0.99808667E-05 0.16332101E-08-0.10249437E-12    2
-0.20375799E+05-0.17189697E+02-0.47249255E+00 0.46364300E-01-0.19162337E-04    3
-0.26612175E-08 0.33023280E-11-0.17987465E+05 0.24826550E+02                   4
C3H7OH                  C   3H   8O   1     G  0300.00   5000.00  1000.00      1
 0.78738936E+01 0.22170236E-01-0.76477927E-05 0.12332934E-08-0.76598667E-13    2
-0.36674131E+05-0.15277676E+02 0.13337798E+00 0.40273454E-01-0.14728696E-04    3
-0.80114964E-08 0.58863921E-11-0.34506324E+05 0.25219995E+02                   4
C12H26-1                C  12H  26O   0     G  0300.00   5000.00  1000.00      1
 0.20941332E+02 0.79960130E-01-0.28272181E-04 0.46363371E-08-0.29117236E-12    2
-0.46267393E+05-0.71052120E+02-0.23558077E+00 0.12771340E+00-0.42313819E-04    3
-0.25583047E-07 0.17393493E-10-0.40268656E+05 0.40152325E+02                   4
C3H6O3KP                C   3H   6O   3     G  0300.00   5000.00  1000.00      1
 0.20941332E+02 0.79960130E-01-0.28272181E-04 0.46363371E-08-0.29117236E-12    2
-0.46267393E+05-0.71052120E+02-0.23558077E+00 0.12771340E+00-0.42313819E-04    3
-0.25583047E-07 0.17393493E-10-0.40268656E+05 0.40152325E+02                   4
C4H8O3KP                C   4H   8O   3     G  0300.00   5000.00  1000.00      1
 0.20941332E+02 0.79960130E-01-0.28272181E-04 0.46363371E-08-0.29117236E-12    2
-0.46267393E+05-0.71052120E+02-0.23558077E+00 0.12771340E+00-0.42313819E-04    3
-0.25583047E-07 0.17393493E-10-0.40268656E+05 0.40152325E+02                   4
C12H24O3KP              C  12H  24O   3     G  0300.00   5000.00  1000.00      1
 0.20941332E+02 0.79960130E-01-0.28272181E-04 0.46363371E-08-0.29117236E-12    2
-0.46267393E+05-0.71052120E+02-0.23558077E+00 0.12771340E+00-0.42313819E-04    3
-0.25583047E-07 0.17393493E-10-0.40268656E+05 0.40152325E+02                   4
C10H20O3KP              C  10H  20O   3     G  0300.00   5000.00  1000.00      1
 0.20941332E+02 0.79960130E-01-0.28272181E-04 0.46363371E-08-0.29117236E-12    2
-0.46267393E+05-0.71052120E+02-0.23558077E+00 0.12771340E+00-0.42313819E-04    3
-0.25583047E-07 0.17393493E-10-0.40268656E+05 0.40152325E+02                   4
C9H18O3KP               C   9H  18O   3     G  0300.00   5000.00  1000.00      1
 0.20941332E+02 0.79960130E-01-0.28272181E-04 0.46363371E-08-0.29117236E-12    2
-0.46267393E+05-0.71052120E+02-0.23558077E+00 0.12771340E+00-0.42313819E-04    3
-0.25583047E-07 0.17393493E-10-0.40268656E+05 0.40152325E+02                   4
C5H10O3KP               C   5H  10O   3     G  0300.00   5000.00  1000.00      1
 0.20941332E+02 0.79960130E-01-0.28272181E-04 0.46363371E-08-0.29117236E-12    2
-0.46267393E+05-0.71052120E+02-0.23558077E+00 0.12771340E+00-0.42313819E-04    3
-0.25583047E-07 0.17393493E-10-0.40268656E+05 0.40152325E+02                   4
C8H16O3KP               C   8H  16O   3     G  0300.00   5000.00  1000.00      1
 0.20941332E+02 0.79960130E-01-0.28272181E-04 0.46363371E-08-0.29117236E-12    2
-0.46267393E+05-0.71052120E+02-0.23558077E+00 0.12771340E+00-0.42313819E-04    3
-0.25583047E-07 0.17393493E-10-0.40268656E+05 0.40152325E+02                   4
C6H12O3KP               C   6H  12O   3     G  0300.00   5000.00  1000.00      1
 0.20941332E+02 0.79960130E-01-0.28272181E-04 0.46363371E-08-0.29117236E-12    2
-0.46267393E+05-0.71052120E+02-0.23558077E+00 0.12771340E+00-0.42313819E-04    3
-0.25583047E-07 0.17393493E-10-0.40268656E+05 0.40152325E+02                   4
C7H14O3KP               C   7H  14O   3     G  0300.00   5000.00  1000.00      1
 0.20941332E+02 0.79960130E-01-0.28272181E-04 0.46363371E-08-0.29117236E-12    2
-0.46267393E+05-0.71052120E+02-0.23558077E+00 0.12771340E+00-0.42313819E-04    3
-0.25583047E-07 0.17393493E-10-0.40268656E+05 0.40152325E+02                   4
C12H24Z                 C  12H  24O   0     G  0300.00   5000.00  1000.00      1
 0.20401447E+02 0.75429544E-01-0.26742151E-04 0.43940918E-08-0.27635760E-12    2
-0.32242758E+05-0.68310562E+02-0.13679416E+00 0.12137081E+00-0.39549068E-04    3
-0.25405159E-07 0.16926785E-10-0.26396994E+05 0.39657070E+02                   4
C11H22Z                 C  11H  22O   0     G  0300.00   5000.00  1000.00      1
 0.18649845E+02 0.69328576E-01-0.24671523E-04 0.40674770E-08-0.25656753E-12    2
-0.27354868E+05-0.59635478E+02 0.13111140E+00 0.11094002E+00-0.35833840E-04    3
-0.24003244E-07 0.15883760E-10-0.22131469E+05 0.37578941E+02                   4
C5H10Z                  C   5H  10O   0     G  0300.00   5000.00  1000.00      1
 0.68866452E+01 0.33219494E-01-0.12162192E-04 0.20454378E-08-0.13081308E-12    2
-0.64481337E+04-0.83398518E+01 0.19331774E+00 0.48487734E-01-0.15268532E-04    3
-0.10284795E-07 0.67308472E-11-0.46432534E+04 0.26575609E+02                   4
C10H20Z                 C  10H  20O   0     G  0300.00   5000.00  1000.00      1
 0.16361690E+02 0.63507646E-01-0.22641185E-04 0.37386592E-08-0.23614533E-12    2
-0.25177626E+05-0.49676398E+02 0.98114383E+00 0.97113930E-01-0.31023177E-04    3
-0.18580140E-07 0.12238908E-10-0.20721535E+05 0.31474199E+02                   4
C6H12Z                  C   6H  12O   0     G  0300.00   5000.00  1000.00      1
 0.85377300E+01 0.39396789E-01-0.14277010E-04 0.23845530E-08-0.15180168E-12    2
-0.11245789E+05-0.15577338E+02 0.10665774E+01 0.55171594E-01-0.16567761E-04    3
-0.10185071E-07 0.64049209E-11-0.90673936E+04 0.23952820E+02                   4
C9H18Z                  C   9H  18O   0     G  0300.00   5000.00  1000.00      1
 0.14444540E+02 0.57409301E-01-0.20507014E-04 0.33896799E-08-0.21418804E-12    2
-0.21709957E+05-0.41367120E+02 0.90238219E+00 0.87313056E-01-0.29031176E-04    3
-0.14883464E-07 0.10221521E-10-0.17797145E+05 0.30019241E+02                   4
C7H14Z                  C   7H  14O   0     G  0300.00   5000.00  1000.00      1
 0.10559486E+02 0.45303468E-01-0.16294991E-04 0.27055032E-08-0.17142921E-12    2
-0.14754096E+05-0.24465998E+02 0.96197104E+00 0.66234067E-01-0.21565682E-04    3
-0.10904247E-07 0.73759280E-11-0.11972017E+05 0.26185778E+02                   4
C8H16Z                  C   8H  16O   0     G  0300.00   5000.00  1000.00      1
 0.12492532E+02 0.51377255E-01-0.18412831E-04 0.30503251E-08-0.19303020E-12    2
-0.18229531E+05-0.32866470E+02 0.83888716E+00 0.77428035E-01-0.26887175E-04    3
-0.11294274E-07 0.82287779E-11-0.14874707E+05 0.28496531E+02                   4
C12H26O2P               C  12H  26O   2     G  0300.00   5000.00  1000.00      1
 0.28600178E+02 0.75036071E-01-0.25637390E-04 0.41026977E-08-0.25326098E-12    2
-0.61107822E+05-0.10378459E+03 0.62605162E+01 0.10688197E+00 0.20304098E-04    3
-0.93347836E-07 0.41749548E-10-0.54042867E+05 0.17698496E+02                   4
C3H6O2PZ                C   3H   6O   2     G  0300.00   5000.00  1000.00      1
 0.10443695E+02 0.17573746E-01-0.60961356E-05 0.98704911E-09-0.61481954E-13    2
-0.11948630E+05-0.24820230E+02 0.36786113E+01 0.32269310E-01-0.10301906E-04    3
-0.76882758E-08 0.48891334E-11-0.99506963E+04 0.10972757E+02                   4
C4H8O2PZ                C   4H   8O   2     G  0300.00   5000.00  1000.00      1
 0.12131532E+02 0.24101434E-01-0.84211642E-05 0.13701739E-08-0.85618842E-13    2
-0.15353836E+05-0.31994610E+02 0.48180485E+01 0.30885328E-01 0.20026109E-04    3
-0.46138091E-07 0.19504962E-10-0.12955774E+05 0.84560547E+01                   4