! Version 06.1
! JOURNAL OF PHYSICAL CHEMISTRY A, 2006, 110, 114-131.
ELEMENTS
C H O N AR
END

SPECIES
!SPECIES ADDED BY ORME
IC5H8
MCH CYCHEXRAD X1C6H116 C7H1416 X1C7H136 X2C7H137 X1C7H137 C7H14AF AC7H13F
EC7H13A C7H14GL GC7H13L KC7H13G X1C5H94 X1C5H95 X2C5H95 AC5H9D CC5H9A 
X15C6H10 X16C7H12 X15C7H12 GKC7H12 X13C5H8 X14C5H8 AEC7H12 X15C6H93 
X16C7H113 X16C7H114 X15C7H113 X15C7H114 X15C7H117 GKC7H11M GKC7H11I GKC7H11J 
X13C5H75 IC5H7 AEC7H11G AEC7H11C AEC7H11D CYCHEXENE CYCC6H91 CYCC6H92 X13C6H96
X14C6H96 X13CYCHEX X13CYCHEX5 X14CYCHEX X2C6H1016 X3C6H1016 CYCHEXCH2 MCHR1 MCHR2 
MCHR3 MCHR4 TC3H5 IC4H7 GKMC7H10 GIKC7H10 ACEC7H10 
METCYCHEX MCH1ENE MCH2ENE MCH3ENE X136C7H10 X135C7H10 X135C6H8 X125C6H8 X14C5H73
C5H1014 C4H814 X1C7H14 X2C7H14
C5H10AD AC7H14 EC7H14 GC7H14 KC7H14
AC7H13C X1C7H133 GC7H13I X2C7H134 X2C7H131 KC7H13J EC7H13D X13C7H12 GIC7H12
GMC7H12 X24C7H12 X13C6H10 IKC7H12 CEC7H12 ACC7H12 X1C6H113 C4H91 X2C5H91 X1C5H93

! LASKINS ORIGINAL SPECIES

! THE FOLLOWING SPECIES FROM LASKIN'S ORIGINAL MECHANISM WERE RENAMED
!C4H6 TO X13C4H6       C4H7 TO X1C4H74      A1 TO C6H6
!A1CH3 TO C6H5CH3      A1C2H TO C6H5C2H     A1C2H3 TO C6H5C2H3
!A1- TO C6H5           A2  TO C10H8         A1CH2 TO C6H5CH2


AR  N2
!
! RADICALS IN ORDER OF INCREASING MOLECULAR WEIGHT:
!
H  C CH  CH2  CH2*  CH3  O  CH4  OH  C2H  H2CC  C2H3  C2H4   C2H5  HCO  CH2O  CH2OH
CH3O  HO2  C3H2  C3H3  C2O HCCO  AC3H5  SC3H5  C3H6  NC3H7  IC3H7  CH3CO
CH2OCH  N-C4H3  I-C4H3  N-C4H5  I-C4H5  C4H5-2  X13C4H6  X1C4H74  CH2CHCO  C5H5  CH2CHCHCHO
CH3CHCHCO  C6H3  C6H5  C5H5O  C5H4OH  C6H5CH2  C6H5O  
!
! STABLE MOLECULES IN ORDER OF INCREASING MOLECULAR WEIGHT:
!
H2  H2O  C2H2  CO  C2H6  CH3OH  O2  H2O2  PC3H4  AC3H4  CC3H4
CH2CO  HCCOH  CH2CHO  CH3CHO  CH2OCH2  C3H8  CO2  C4H2  C4H4  C4H612
C4H6-2  C4H81  C2H3CHO  CH3CHOCH2  CH3CH2CHO  CH3COCH3  C5H6  H2C4O  C4H4O
C2H3CHOCH2  C4H6O23  CH3CHCHCHO  C4H6O25  C6H2  L-C6H4  C-C6H4  C6H6  C5H4O
C6H5CH3 C6H5OH C6H5C2H C6H5C2H3 C10H8
!
!CH2         - TRIPLET METHYLENE
!CH2*        - SINGLET METHYLENE
!H2CC        - VINYLIDENE
!AC3H5       - ALLYL
!CH3CCH2     - CH3-*C=CH2
!CH3CHCH     - CH3-CH=CH*
!NC3H7       - CH3-CH2-CH2*
!IC3H7       - CH3-*CH-CH3
!CH2OCH      - CH2OCH* RADICAL OF ETHYLENE OXIDE
!N-C4H3      - *CH=CH-CCH
!I-C4H3      - CH2C*-CCH
!N-C4H5      - *CH=CH-CH=CH2
!I-C4H5      - CH2=C*-CH=CH2
!C4H5-2      - CH3-CC-*CH2
!X1C4H74     - *CH2-CH2-CH=CH2 (ORIGINALLY C4H7...CHANGED TO X1C4H74 BY ORME)
!CH2CHCO     - CH2=CH-*CO
!C5H5        - CYCLOPENTADIENYL
!CH2CHCHCHO  - *CH2-CH=CH-CHO		
!CH3CHCHCO   - CH3-CH=CH-*CO
!C6H3        - *CH=CH-CC-CCH
!C6H5        - PHENYL (ORIGINALLY A1-...CHANGED TO C6H5 BY ORME)
!C5H5O       - CYCLOPENTADIENYLOXY RADICAL
!C5H4OH      - CYCLOPENTADIENOLYL RADICAL
!C6H5CH2     - BENZYL  (ORIGINALLY A1CH2...CHANGED TO C6H5CH2 BY ORME)
!C6H5O       - PHENOXY RADICAL
!CH2OCH2     - ETHYLENE OXIDE
!X13C4H6     - 1,3-BUTADIENE (ORIGINALLY C4H6...CHANGED TO X13C4H6 BY ORME)
!C4H612      - 1,2-BUTADIENE
!C4H6-2      - 2-BUTYNE
!C4H81       - 1-BUTENE  
!C2H3CHO     - ACROLEIN
!CH3CHOCH2   - PROPYLENE OXIDE
!CH3COCH3    - ACETONE
!C5H6        - CYCLOPENTADIENE
!H2C4O       - CH2=C=C=C=O
!C4H4O       - FURAN
!C2H3CHOCH2  - ETHENYLOXIRANE
!C4H6O23     - 2,3-DIHYDROFURAN
!CH3CHCHCHO  - CROTONALDEHYDE
!C4H6O25     - 2,5-DIHYDROFURAN
!L-C6H4      - CH2=CH-CC-CCH
!C-C6H4      - BENZYNE
!C6H6        - BENZENE  (ORIGINALLY A1...CHANGED TO C6H6 BY ORME)
!C5H4O       - 2,4-CYCLOPENTADIENE, 1-ONE
!C6H5CH3     - TOLUENE  (ORIGINALLY A1CH3...CHANGED TO C6H5CH3 BY ORME)
!C6H5OH      - PHENOL
!C6H5C2H     - PHENYLACETYLENE (ORIGINALLY A1C2H...CHANGED TO C6H5C2H BY ORME)
!C6H5C2H3    - STYRENE  (ORIGINALLY A1C2H3...CHANGED TO C6H5C2H3 BY ORME)
!C10H8       - NAPHTHALENE (ORIGINALLY A2...CHANGED TO C10H8 BY ORME)
END

REACTIONS

MCH = C7H14GL 2.5E16 0.0 86042
MCH = C7H14AF 2.5E16 0.0 86042
MCH = C7H1416 2.5E16 0.0 82457
  
CYCHEXRAD + CH3 = MCH      6.63E14    -0.57  0.0 

X1C6H116 = CYCHEXRAD    1.0E08    0.86    5900 
AC7H13F = MCHR1         1.0E08    0.86    5900 
GC7H13L = MCHR2         1.0E08    0.86    5900 
X2C7H137 = MCHR2        1.0E08    0.86    8700 
X1C7H136 = MCHR3        1.0E08    0.86    8500 
KC7H13G = MCHR3         1.0E08    0.86    5900 
EC7H13A = MCHR4         1.0E08    0.86    5900 
X13C6H96 = CYCC6H91     1.0E08    0.86    6900 
X14C6H96 = CYCC6H92     1.0E08    0.86    6900 
X1C7H137 = CYCHEXCH2    1.0E08    0.86    1903 
X2C6H1016 = CYCHEXENE   1.0E08    0.86    1000 
X3C6H1016 = CYCHEXENE   1.0E08    0.86    1000 


AC7H13F =AC7H13C        3.67E12   -0.6     15300 
X1C7H137 = X1C7H133     2.8E10     0.0      7500 
GC7H13L = GC7H13I       3.67E12   -0.6     13000 
X2C7H137 = X2C7H134     3.67E12   -0.6     15300 
X2C7H137 = X2C7H131     2.8E10     0.0     31640 
X1C7H136 = X1C7H133     3.67E12   -0.6     17900 
KC7H13G = KC7H13J       3.67E12   -0.6     15300 
EC7H13A = EC7H13D       3.67E12   -0.6     15300 
!X2C7H134 = X3C7H132  THESE SPECIES ARE IDENTICAL DUE TO RESONANCE
!X2C7H131 = X1C7H133  THESE SPECIES ARE IDENTICAL DUE TO RESONANCE
X1C6H116 = X1C6H113     3.67E12   -0.6     15300 
C7H1416 = X1C7H14       3.67E12   -0.6     15300 
DUPLICATE
C7H1416 = X1C7H14       2.8E10   0.0 25875 
DUPLICATE
C7H1416 = X2C7H14       3.67E12    -0.6    12800 
C7H14AF = AC7H14        3.67E12    -0.6    10500 
C7H14AF = EC7H14        3.67E12    -0.6    12800 
C7H14GL = GC7H14        3.67E12    -0.6    12800 
C7H14GL = KC7H14        3.67E12    -0.6    12800 
X2C5H95 = X2C5H91       3.67E12    -0.6    10000
X1C5H94 = X1C5H93       3.56E10    0.88    31500 


MCH + H = MCHR1 + H2         6.02E05   2.40 2583
MCH + H = MCHR2 + H2         2.6E06    2.40 4471
MCH + H = MCHR3 + H2         2.6E06    2.40 4471
MCH + H = MCHR4 + H2         1.3E06    2.40 4471
MCH + H = CYCHEXCH2 + H2     6.651E05  2.54 6756

MCH + CH3 = MCHR1 + CH4      6.01E-10    6.362   893
MCH + CH3 = MCHR2 + CH4      3.02        3.46   5481
MCH + CH3 = MCHR3 + CH4	     3.02        3.46   5481
MCH + CH3 = MCHR4 + CH4	     1.51        3.46   5481
MCH + CH3 = CYCHEXCH2 + CH4  4.521E-01   3.65   7154

MCH + O2 = MCHR1 + HO2        1.0E13   0.0   48200
MCH + O2 = MCHR2 + HO2        4.0E13   0.0   49640
MCH + O2 = MCHR3 + HO2        4.0E13   0.0   49640
MCH + O2 = MCHR4 + HO2        2.0E13   0.0   49640
MCH + O2 = CYCHEXCH2 + HO2    3.0E13   0.0   52290

MCH + HO2 = MCHR1 + H2O2      3.61E03      2.55     10532
MCH + HO2 = MCHR2 + H2O2      1.928E04     2.6      13910
MCH + HO2 = MCHR3 + H2O2      1.928E04     2.6      13910
MCH + HO2 = MCHR4 + H2O2      9.64E03      2.6      13910
MCH + HO2 = CYCHEXCH2 + H2O2  2.3799E04    2.55     16494

MCH + OH = MCHR1 + H2O        5.733E10     0.51       63
MCH + OH = MCHR2 + H2O        9.34E07      1.61      -35
MCH + OH = MCHR3 + H2O        9.34E07      1.61      -35
MCH + OH = MCHR4 + H2O        4.67E07      1.61      -35
MCH + OH = CYCHEXCH2 + H2O    5.268E09     0.97     1586

MCH + CH3O = MCHR1 + CH3OH         2.29E10     0.0    2873
MCH + CH3O = MCHR2 + CH3OH         2.9E11      0.0    4571
MCH + CH3O = MCHR3 + CH3OH         2.9E11      0.0    4571
MCH + CH3O = MCHR4 + CH3OH         1.45E11     0.0    4571
MCH + CH3O = CYCHEXCH2 + CH3OH     2.1699E11   0.0    6458

MCH + O = MCHR1 + OH       3.830E5      2.41     1140
MCH + O = MCHR2 + OH       1.102E06     2.45     2830
MCH + O = MCHR3 + OH       1.102E06     2.45     2830
MCH + O = MCHR4 + OH       5.51E05      2.45     2830
MCH + O = CYCHEXCH2 + OH   9.798E05     2.43     4750

X16C7H12 + H = X16C7H114 + H2        1.3E06    2.4    4471 
X16C7H12 + CH3 = X16C7H114 + CH4     1.51      3.46   5481 
X16C7H12 + O = X16C7H114 + OH        5.51E05   2.45   2830 
X16C7H12 + OH = X16C7H114 + H2O      4.67E07   1.61    -35 

IC5H8 + H = IC5H7 + H2           1.7298E5      2.5        2492 
IC5H8 + CH3 = IC5H7 + CH4        2.2098        3.5        5675 
IC5H8 + OH = IC5H7 + H2O         3.12E6        2.0        -298 
IC5H8 + HO2 = IC5H7 + H2O2       9.639E03      2.6       13910 
IC5H8 + CH3O = IC5H7 + CH3OH     90            2.95      11987 
IC5H8 + O = IC5H7 + OH           4.41E5        2.42       3150 
IC5H8 + O2 = IC5H7 + HO2         3.3E12        0.0       39900 
                                               
CYCHEXENE + H = CYCC6H91 + H2          6.752E05     2.36       207 
CYCHEXENE + CH3 = CYCC6H91 + CH4       7.38         3.31      4002 
CYCHEXENE + O = CYCC6H91 + OH          1.32E06      2.43      1210 
CYCHEXENE + OH = CYCC6H91 + H2O        5.528E04     2.64     -1919 
CYCHEXENE + H = CYCC6H92 + H2          2.6E6        2.4       4471 
CYCHEXENE + CH3 = CYCC6H92 + CH4       3.02         3.46      5481 
CYCHEXENE + O = CYCC6H92 + OH          1.102E6      2.45      2830 
CYCHEXENE + OH = CYCC6H92 + H2O        9.34E07      1.61       -35 

AEC7H12 + H = AEC7H11C + H2         3.376E5     2.36     207 
AEC7H12 + H = AEC7H11D + H2         3.376E5     2.36     207 
X15C7H12 + H = X15C7H113 + H2       3.376E5     2.36     207 
X15C7H12 + H = X15C7H114 + H2       3.376E5     2.36     207 
GKC7H12 + H = GKC7H11J + H2         3.376E5     2.36     207 
X14C5H8 + H = X14C5H73 + H2         3.376E5     2.36     207 
                                                        
AEC7H12 + CH3 = AEC7H11C + CH4       3.69     3.31    4002 
AEC7H12 + CH3 = AEC7H11D + CH4       3.69     3.31    4002 
X15C7H12 + CH3 = X15C7H113 + CH4     3.69     3.31    4002 
X15C7H12 + CH3 = X15C7H114 + CH4     3.69     3.31    4002 
GKC7H12 + CH3 = GKC7H11J + CH4       3.69     3.31    4002 
X14C5H8 + CH3 = X14C5H73 + CH4       3.69     3.31    4002 

AEC7H12 + O = AEC7H11C + OH         6.6E05     2.43   1210 
AEC7H12 + O = AEC7H11D + OH         6.6E05     2.43   1210 
X15C7H12 + O = X15C7H113 + OH       6.6E05     2.43   1210 
X15C7H12 + O = X15C7H114 + OH       6.6E05     2.43   1210 
GKC7H12 + O = GKC7H11J + OH         6.6E05     2.43   1210 
X14C5H8 + O = X14C5H73 + OH         6.6E05     2.43   1210 

AEC7H12 + OH = AEC7H11C + H2O       2.764E4     2.64   -1919 
AEC7H12 + OH = AEC7H11D + H2O       2.764E4     2.64   -1919 
X15C7H12 + OH = X15C7H113 + H2O     2.764E4     2.64   -1919 
X15C7H12 + OH = X15C7H114 + H2O     2.764E4     2.64   -1919 
GKC7H12 + OH = GKC7H11J + H2O       2.764E4     2.64   -1919 
X14C5H8 + OH = X14C5H73 + H2O       2.764E4     2.64   -1919 

X15C6H10 + H = X15C6H93 + H2        6.752E05    2.36      207 
X15C6H10 + CH3 = X15C6H93 + CH4     7.38        3.31     4002 
X15C6H10 + O = X15C6H93 + OH        1.32E06     2.43     1210 
X15C6H10 + OH = X15C6H93 + H2O      5.528E04    2.64    -1919 

X16C7H12 + H = X16C7H113 + H2       6.752E05    2.36      207 
X16C7H12 + CH3 = X16C7H113 + CH4    7.38        3.31     4002 
X16C7H12 + O = X16C7H113 + OH       1.32E06     2.43     1210 
X16C7H12 + OH = X16C7H113 + H2O     5.528E04    2.64    -1919 

X15C7H12 + H = X15C7H117 + H2       1.7298E5    2.5      2492 
X13C5H8 + H = X13C5H75 + H2         1.7298E5    2.5      2492 
AEC7H12 + H = AEC7H11G + H2         1.7298E5    2.5      2492 

X15C7H12 + CH3 = X15C7H117 + CH4      2.2098    3.5    5675 
X13C5H8 + CH3 = X13C5H75 + CH4        2.2098    3.5    5675 
AEC7H12 + CH3 = AEC7H11G + CH4        2.2098    3.5    5675 

X15C7H12 + O = X15C7H117 + OH        4.41E05     2.42    3150 
X13C5H8 + O = X13C5H75 + OH          4.41E05     2.42    3150 
AEC7H12 + O = AEC7H11G + OH          4.41E05     2.42    3150 

X15C7H12 + OH = X15C7H117 + H2O      3.12E06     2.0     -298 
X13C5H8 + OH = X13C5H75 + H2O        3.12E06     2.0     -298 
AEC7H12 + OH = AEC7H11G + H2O        3.12E06     2.0     -298 

GKC7H12 + H = GKC7H11M + H2          6.651E05    2.54    6756
GKC7H12 + CH3 = GKC7H11M + CH4       4.521E-1    3.65    7154
GKC7H12 + O = GKC7H11M + OH          9.798E05    2.43    4750
GKC7H12 + OH = GKC7H11M + H2O        5.268E09    0.97    1586

GKC7H12 + H = GKC7H11I + H2          2.65E6      2.2      0.0 
GKC7H12 + CH3 = GKC7H11I + CH4       4.613       3.1     2330 
GKC7H12 + OH = GKC7H11I + H2O        6.14E02     3.2    -3500 

X1C7H14 + H = X1C7H133 + H2            3.376E05     2.36         207 
X1C7H14 + CH3 = X1C7H133 + CH4         3.69         3.31        4002 
X1C7H14 + OH = X1C7H133 + H2O          2.764E04     2.64       -1919 
X1C7H14 + HO2 = X1C7H133 + H2O2        4.82E03      2.55       10532 
X1C7H14 + CH3O = X1C7H133 + CH3OH      40           2.9         8609 
X1C7H14 + O = X1C7H133 + OH            6.6E5        2.43        1210 
X1C7H14 + O2 = X1C7H133 + HO2          2.2E12       0.0        37220 

X2C7H14 + H = X2C7H131 + H2            1.7298E05    2.5         2492 
X2C7H14 + H = X2C7H134 + H2            3.376E05     2.36         207 
X2C7H14 + CH3 = X2C7H131 + CH4         4.521E-01    3.65        7154 
X2C7H14 + CH3 = X2C7H134 + CH4         3.69         3.31        4002 
X2C7H14 + O = X2C7H131 + OH            4.41E05      2.42        3150 
X2C7H14 + OH = X2C7H131 + H2O          3.12E06      2.0         -298 
X2C7H14 + O = X2C7H134 + OH            6.6E05       2.43        1210 
X2C7H14 + OH = X2C7H134 + H2O          2.764E04     2.64       -1919 

AC7H14 + H = AC7H13C + H2              3.376E05     2.36         207 
AC7H14 + CH3 = AC7H13C + CH4           3.69         3.31        4002 
AC7H14 + O = AC7H13C + OH              6.6E05       2.43        1210 
AC7H14 + OH = AC7H13C + H2O            2.764E04     2.64       -1919 

EC7H14 + H = EC7H13D + H2              3.376E05     2.36         207 
EC7H14 + CH3 = EC7H13D + CH4           3.69         3.31        4002 
EC7H14 + O = EC7H13D + OH              6.6E05       2.43        1210 
EC7H14 + OH = EC7H13D + H2O            2.764E04     2.64       -1919 

GC7H14 + H = GC7H13I + H2              2.65E6       2.2          0.0 
GC7H14 + CH3 = GC7H13I + CH4           4.613        3.1         2330 
GC7H14 + OH = GC7H13I + H2O            6.14E02      3.2        -3500 

KC7H14 + H = KC7H13J + H2              3.376E05     2.36         207
KC7H14 + CH3 = KC7H13J + CH4           3.69         3.31        4002
KC7H14 + O = KC7H13J + OH              6.6E05       2.43        1210
KC7H14 + OH = KC7H13J + H2O            2.764E04     2.64       -1919




CYCHEXENE + H = CYCHEXRAD      1.32E13   0.0   3260 
X15C6H10 + H = X1C6H116        1.32E13   0.0   3260 
X1C7H136 + H = C7H1416         1.32E13   0.0   3260 
X2C7H137 + H = C7H1416         1.32E13   0.0   3260 
X15C7H12 + H = X1C7H136        1.32E13   0.0   3260 
X15C7H12 + H = X2C7H137        1.32E13   0.0   3260 
X16C7H12 + H = X1C7H137        1.32E13   0.0   3260 
EC7H13A + H = C7H14AF          1.32E13   0.0   3260 
AEC7H12 + H = AC7H13F          1.32E13   0.0   3260 
GC7H13L + H = C7H14GL          1.32E13   0.0   3260 
KC7H13G + H = C7H14GL          1.32E13   0.0   3260 
IC5H8 + H = AC5H9D             1.32E13   0.0   3260 
GKC7H12 + H = GC7H13L          1.32E13   0.0   3260 
GKC7H12 + H = KC7H13G          1.32E13   0.0   3260 
X14C5H8 + H = X1C5H95          1.32E13   0.0   3260 
X14C5H8 + H = X1C5H94          1.32E13   0.0   3260 
X13C5H8 + H = X2C5H95          1.32E13   0.0   3260 
C3H6 + C2H3 = CC5H9A           1.32E13   0.0   3260 
X136C7H10 + H = X16C7H113      1.32E13   0.0   3260 
X135C6H8 + H = X15C6H93        1.32E13   0.0   3260 
X136C7H10 + H = X16C7H114      1.32E13   0.0   3260 
X135C7H10 + H = X15C7H113      1.32E13   0.0   3260 
X135C7H10 + H = X15C7H114      1.32E13   0.0   3260 
X136C7H10 + H = X15C7H117      1.32E13   0.0   3260 
ACEC7H10 + H = AEC7H11C        1.32E13   0.0   3260 
ACEC7H10 + H = AEC7H11D        1.32E13   0.0   3260 
X13CYCHEX + H = CYCC6H91       1.32E13   0.0   3260 
X135C6H8 + H = X13C6H96        1.32E13   0.0   3260 
X135C6H8 + H = X14C6H96        1.32E13   0.0   3260 
X14C6H96 + H = X2C6H1016       1.32E13   0.0   3260 
X13C6H96 + H = X3C6H1016       1.32E13   0.0   3260 
MCH1ENE + H = MCHR1            1.32E13   0.0   3260 
MCH2ENE + H = MCHR2            1.32E13   0.0   3260 
MCH2ENE + H = MCHR3            1.32E13   0.0   3260 
MCH3ENE + H = MCHR3            1.32E13   0.0   3260 
MCH3ENE + H = MCHR4            1.32E13   0.0   3260 
X13C6H10 + H = X1C6H113        1.32E13   0.0   3260 
ACC7H12 + H = AC7H13C          1.32E13   0.0   3260 
X13C7H12 + H = X1C7H133        1.32E13   0.0   3260 
GIC7H12 + H = GC7H13I          1.32E13   0.0   3260 
X24C7H12 + H = X2C7H134        1.32E13   0.0   3260 
CEC7H12 + H =EC7H13D           1.32E13   0.0   3260 
X13CYCHEX + H = CYCC6H92       1.32E13   0.0   3260 
X14CYCHEX + H = CYCC6H92       1.32E13   0.0   3260 
X13C5H8 + H = X2C5H91          1.32E13   0.0   3260

AC7H13F + H = C7H14AF          1.32E13   0.0   4660 
AEC7H12 + H = EC7H13A          1.32E13   0.0   4660 
IC5H8 + H = CC5H9A             1.32E13   0.0   4660 
GKMC7H10 + H = GKC7H11M        1.32E13   0.0   4660 
GIKC7H10 + H = GKC7H11J        1.32E13   0.0   4660 
METCYCHEX + H = CYCHEXCH2      1.32E13   0.0   4660 
MCH1ENE + H = MCHR2            1.32E13   0.0   4660 
IKC7H12 + H = KC7H13J          1.32E13   0.0   4660 

X1C7H137 + H = C7H1416         2.64E13   0.0   2160  
X16C7H12 + H = X1C7H136        2.64E13   0.0   2160 
X13C5H8 + H = X1C5H94          2.64E13   0.0   2160 
GKMC7H10 + H = GKC7H11I        2.64E13   0.0   2160 
METCYCHEX + H = MCHR1          2.64E13   0.0   2160 
GMC7H12 + H = GC7H13I          2.64E13   0.0   2160 


X1C4H74 + C2H4 = X1C6H116      1.32E04   2.48   6130 
X2C5H95 + C2H4 = X2C7H137      1.32E04   2.48   6130 
X1C5H95 + C2H4 = X1C7H137      1.32E04   2.48   6130 
AC5H9D + C2H4 = AC7H13F        1.32E04   2.48   6130 
CC5H9A + C2H4 = GC7H13L        1.32E04   2.48   6130 
C2H4 + AC3H5 = X1C5H95         1.32E04   2.48   6130 
C2H4 + SC3H5 =X2C5H95          1.32E04   2.48   6130 
C2H4 + TC3H5 = AC5H9D          1.32E04   2.48   6130 
C2H4 + N-C4H5 = X13C6H96       1.32E04   2.48   6130 
X1C5H94 + C2H4 = KC7H13G       1.32E04   2.48   6130 
C5H1014 + C2H4 = C7H1416       1.32E04   2.48   6130 
C5H10AD + C2H4 = C7H14AF       1.32E04   2.48   6130 
C5H1014 + C2H4 = C7H14GL       1.32E04   2.48   6130 
C5H10AD + C2H4 = C7H14GL       1.32E04   2.48   6130 


!C2H4 + C3H6 + C2H4 = C7H1416       4.86E05    1.8    5580 
!AC3H4 + X1C4H74 = X16C7H113        4.86E05    1.8    5580 
!X13C4H6 + AC3H5 = X16C7H114        4.86E05    1.8    5580 
!AC3H4 + IC4H7 = X15C7H113          4.86E05    1.8    5580 
!AC3H4 + AC3H5 = X15C6H93           4.86E05    1.8    5580 
!C2H4 + C2H4 + C3H6 = C7H14AF       4.86E05    1.8    5580 
!C2H4 + C3H6 + C2H4 = C7H14GL       3.98E07    0.0    6900 

C3H6 + X1C4H74 = X1C7H136            8.8E03    2.48   6130 
X1C4H74 + C3H6 = EC7H13A             8.8E03    2.48   6130 
C3H6 + C2H3 = X1C5H94                8.8E03    2.48   6130 
X13C4H6 + AC3H5 = X15C7H117          8.8E03    2.48   6130 
X13C4H6 + C2H5 = X1C6H113            8.8E03    2.48   6130 
IC5H8 + C2H5 = AC7H13C               8.8E03    2.48   6130 
X13C4H6 + NC3H7 = X1C7H133           8.8E03    2.48   6130 
IC5H8 + C2H5 = GC7H13I               8.8E03    2.48   6130 
X13C5H8 + C2H5 = X2C7H134            8.8E03    2.48   6130 
TC3H5 + X13C4H6 = AEC7H11D           8.8E03    2.48   6130 
X13C4H6 + IC3H7 = EC7H13D            8.8E03    2.48   6130 
X13C4H6 + C2H3 = X14C6H96            8.8E03    2.48   6130 
X13C4H6 + C2H3 = X15C6H93            8.8E03    2.48   6130 
X14C5H8 + C2H3 = X16C7H114           8.8E03    2.48   6130 
X13C4H6 + SC3H5 = X15C7H113          8.8E03    2.48   6130 
C2H3 + X13C5H8 = X15C7H114           8.8E03    2.48   6130 
C2H3 + X14C5H8 = GKC7H11M            8.8E03    2.48   6130 
IC5H8 + C2H3 = AEC7H11C              8.8E03    2.48   6130 
X13C4H6 + AC3H5 = X16C7H114          8.8E03    2.48   6130 
X13C4H6 + AC3H5 = X16C7H113          8.8E03    2.48   6130 
X13C4H6 + AC3H5 = GKC7H11M           8.8E03    2.48   6130 
X13C4H6 + AC3H5 = GKC7H11I           8.8E03    2.48   6130 
C4H814 + C3H6 = C7H1416              8.8E03    2.48   6130 
X13C4H6 + NC3H7 = X2C7H131           8.8E03    2.48   6130 

X1C6H116 + CH3 = C7H14AF            1.89E03    2.67   6850 
X15C6H10 + CH3 = EC7H13A            1.89E03    2.67   6850 
X13C4H6 + CH3 = CC5H9A              1.89E03    2.67   6850 
X135C6H8 + CH3 = GKC7H11J           1.89E03    2.67   6850 
CYCHEXENE + CH3 = MCHR2             1.89E03    2.67   6850 
X13C6H10 + CH3 = KC7H13J            1.89E03    2.67   6850 
X125C6H8 + CH3 = AEC7H11C           1.89E03    2.67   6850 

X13C4H6 + CH3 = X2C5H91             1.76E04    2.48   6130
X13C4H6 + CH3 = X1C5H93             1.76E04    2.48   6130
                                                      
C2H3 + AC3H4 = IC5H7                9.45E02    2.67   6850 
X13C5H8 + C2H5 = KC7H13J            9.45E02    2.67   6850 
AC3H4 + X1C4H74 = AEC7H11G          9.45E02    2.67   6850 
C4H814 + C3H6 = C7H14AF             9.45E02    2.67   6580 


AC3H5 + AC3H5 = X15C6H10            6.63E14   -0.57    0.0 
AC3H5 + X1C4H74 = X16C7H12          6.63E14   -0.57    0.0 
AC3H5 + IC4H7 = X15C7H12            6.63E14   -0.57    0.0 
IC4H7 + AC3H5 = GKC7H12             6.63E14   -0.57    0.0 
X15C6H93 + CH3 = GKC7H12            6.63E14   -0.57    0.0 
I-C4H5 + CH3 = IC5H8                6.63E14   -0.57    0.0 
C2H4 + C2H4 = C4H814                6.63E14   -0.57    0.0 
C2H4 + C3H6 = C5H1014               6.63E14   -0.57    0.0 
AC3H5 + C4H91 = X1C7H14             6.63E14   -0.57    0.0 
X1C4H74 + NC3H7 = X1C7H14           6.63E14   -0.57    0.0 
X1C5H95 + C2H5 = X1C7H14            6.63E14   -0.57    0.0 
N-C4H5 + CH3 = X13C5H8              6.63E14   -0.57    0.0 


CYCHEXENE = X13C4H6 + C2H4        3.64E62   -13.8    92030 
X13CYCHEX = C6H6 + H2             2.36E19    -1.38   67530 
X13CYCHEX = X13CYCHEX5 + H        5.01E15     0.0    72600 
X13CYCHEX5 = C6H6 + H             4.8E25     -3.46   33480 
X13CYCHEX5 = N-C4H5 + C2H2        2.51E14     0.7    41827 


X2C6H1016 = X13C4H6+C2H4         2.066E+13   0.4391   38219.3
X3C6H1016 = C2H4+C2H2+C2H4       2.066E+13   0.4391   38219.3



!MARCUS O CONAIRE'S H2 CHEMISTRY WAS USED INSTEAD OF LASKIN'S VALUES
!LASKIN'S ORIGINAL RATE EXPRESSIONS ARE LEFT IN PLACE BUT COMMENTED OUT

   H+O2 = O+OH    1.915E+14   0.00  1.644E+04
             REV /  5.481E+11   0.39 -2.930E+02 /
   !H+O2 = O+OH             8.300E+13   0.000  14413.00 !GRI
   
   O+H2 = H+OH    5.080E+04   2.67  6.292E+03
             REV /  2.667E+04   2.65  4.880E+03 /
   !O+H2 = H+OH             5.000E+04   2.670   6290.00 !GRI
   
   OH+H2 = H+H2O   2.160E+08   1.51  3.430E+03
             REV /  2.298E+09   1.40  1.832E+04 /
   !OH+H2 = H+H2O           2.160E+08   1.510   3430.00 !GRI
   
   O+H2O = OH+OH   2.970E+06   2.02  1.340E+04
             REV /  1.465E+05   2.11 -2.904E+03 /
   !OH+OH = O+H2O           3.570E+04   2.400  -2110.00 !GRI
                     
   H2+M = H+H+M      4.577E+19  -1.40  1.044E+05
             REV /  1.146E+20  -1.68  8.200E+02 /
   H2/2.5/ H2O/12.0/ CO/1.9/ CO2/3.8/
   !H+H+M = H2+M            1.000E+18  -1.000      0.00 !GRI
   !H2/0.0/ H2O/0.0/ CH4/2.0/ CO2/0.0/ C2H6/3.00/ AR/0.63/
   
   O2+M = O+O+M      4.515E+17  -0.64  1.189E+05
             REV /  6.165E+15  -0.50  0.000E+00 /
   H2/2.5/ H2O/12.0/ CO/1.9/ CO2/3.8/ CH4/2/ C2H6/3/ AR/0.83/ !HE/0.83/
   !O+O+M = O2+M            1.200E+17  -1.000      0.00 !GRI
   !H2/ 2.4/ H2O/15.4/ CH4/ 2.0/ CO/ 1.75/ CO2/ 3.6/ C2H6/ 3.0/ AR/ 0.83/
   
   OH+M = O+H+M      9.880E+17  -0.74  1.021E+05
             REV /  4.714E+18  -1.00  0.000E+00 /
   H2/2.5/ H2O/12.0/ CO/1.5/ CO2/2/ CH4/2/ C2H6/3/ AR/0.75/ !HE/0.75/
   !O+H+M = OH+M            5.000E+17  -1.000      0.00 !GRI
   !H2/2.0/ H2O/6.0/ CH4/2.0/ CO/1.5/ CO2/2.0/ C2H6/3.0/ AR/0.7/
   
   H2O+M = H+OH+M      1.912E+23  -1.83  1.185E+05
             REV /  4.500E+22  -2.00  0.000E+00 /
   H2/0.73/ H2O/12.0/ CH4/2.0/ C2H6/3.0/ AR/0.38/ !HE/0.38/
   !H+OH+M = H2O+M          2.200E+22  -2.000      0.00 !GRI
   !H2/0.73/ H2O/3.65/ CH4/2.0/ C2H6/3.0/ AR/0.38/
   
   H+O2(+M) = HO2(+M) 1.475E+12 0.60 0.000E+00
!            REV / 3.090E+12 0.53 4.887E+04 /
           LOW / 3.4820E+16 -4.1100E-01 -1.1150E+03 /
   TROE/0.5  1.0000E-30  1.0000E+30  1.0000E+100 /
   H2/1.3/ H2O/14.0/ CO/1.9/ CO2/3.8/ C2H6/1.5/ AR/0.67/ !HE/0.67/
   !H+O2+M = HO2+M          2.800E+18  -0.860      0.00 !GRI
   !O2/0.0/ H2O/0.0/ CO/0.75/ CO2/1.5/ C2H6/1.5/ N2/0.0/ AR/0.0/
   
   HO2+H = H2+O2   1.660E+13   0.00  8.230E+02
             REV /  3.164E+12   0.35  5.551E+04 /
   !HO2+H = O2+H2                 1.660E+13    0.000    820.00 !GRI#
   
   HO2+H = OH+OH   7.079E+13   0.00  2.950E+02
             REV /  2.027E+10   0.72  3.684E+04 /
   !HO2+H = OH+OH                 7.080E+13    0.000    300.00 !GRI#
   
   HO2+O = OH+O2   3.250E+13   0.00  0.000E+00
             REV /  3.252E+12   0.33  5.328E+04 /
   !HO2+O = OH+O2                 2.000E+13    0.000      0.00 !GRI
   
   HO2+OH = H2O+O2   2.890E+13   0.00 -4.970E+02
             REV /  5.861E+13   0.24  6.908E+04 /
   !HO2+OH = O2+H2O               4.640E+13    0.000   -500.00 !GRI
   
   H2O2+O2 = HO2+HO2      4.634E+16  -0.35  5.067E+04
             REV /  4.200E+14   0.00  1.198E+04 /
   DUPLICATE
   H2O2+O2 = HO2+HO2      1.434E+13  -0.35  3.706E+04
             REV /  1.300E+11   0.00 -1.629E+03 /
   DUPLICATE
   !HO2+HO2 = O2+H2O2             1.300E+11    0.000  -1630.00 !GRI
   !DUPLICATE
   !HO2+HO2 = O2+H2O2             4.200E+14    0.000  12000.00 !GRI
   !DUPLICATE
   
   H2O2(+M) = OH+OH(+M) 2.951E+14   0.00  4.843E+04
!          REV / 3.656E+08   1.14 -2.584E+03 /
           LOW / 1.202E+17  0.00 45500. /
       TROE /0.5 1.0E-30 1.0E+30 1.0E+100/
       H2/2.5/ H2O/12.0/ AR/0.64/ !HE/0.64/
   !OH+OH(+M) = H2O2(+M)    7.400E+13   -0.370      0.00 !GRI
   !LOW  /  2.300E+18   -0.900  -1700.00/
   !TROE/  0.7346   94.00  1756.00  5182.00 /
   !H2/2.0/ H2O/6.0/ CH4/2.0/ CO/1.5/ CO2/2.0/ C2H6/3.0/ AR/0.7/
   
   H2O2+H = H2O+OH   2.410E+13   0.00  3.970E+03
             REV /  1.269E+08   1.31  7.141E+04 /
   !H2O2+H = OH+H2O               1.000E+13    0.000   3600.00 !GRI
   
   H2O2+H = H2+HO2   6.025E+13   0.00  7.950E+03
             REV /  1.041E+11   0.70  2.395E+04 /
   !H2O2+H = HO2+H2               1.210E+07    2.000   5200.00 !GRI
   
   H2O2+O = OH+HO2   9.550E+06   2.00  3.970E+03
             REV /  8.660E+03   2.68  1.856E+04 /
   !H2O2+O = OH+HO2               9.630E+06    2.000   4000.00 !GRI
   
   H2O2+OH = H2O+HO2      1.000E+12   0.00  0.000E+00
             REV /  1.838E+10   0.59  3.089E+04 /
   DUPLICATE
   H2O2+OH = H2O+HO2      5.800E+14   0.00  9.557E+03
             REV /  1.066E+13   0.59  4.045E+04 /
   DUPLICATE
   !H2O2+OH = HO2+H2O             1.750E+12    0.000    320.00 !GRI
   !DUPLICATE
   !H2O2+OH = HO2+H2O             5.800E+14    0.000   9560.00 !GRI
   !DUPLICATE


! LASKINS ORIGINAL MECHANISM
! THE EXTRA RXNS OF H2/O2, HO2, H2O2 NOT REPLACED BY O CONAIRE'S MECHANISM WERE COMMENTED OUT
! REACTIONS OF H2/O2
!
! H+H+H2 = H2+H2          9.000E+16  -0.600      0.00 !GRI
! H+H+H2O = H2+H2O        6.000E+19  -1.250      0.00 !GRI
! H+H+CO2 = H2+CO2        5.500E+20  -2.000      0.00 !GRI

! H+O2+O2 = HO2+O2        3.000E+20  -1.720      0.00 !GRI
!  H+O2+H2O<=>HO2+H2O      1.652E+19  -0.760      0.00 !GRI
! H+O2+N2 = HO2+N2        2.600E+19   -1.240      0.00 !GRI 
! H+O2+AR = HO2+AR        7.000E+17   -0.800      0.00 !GRI
!
! REACTIONS OF HO2
!
! HO2+H = O+H2O                 3.970E+12    0.000    671.00 !GRI
!
! REACTIONS OF H2O2
!
!
! REACTIONS OF CO/CO2
!
 CO+O+M = CO2+M                6.020E+14    0.000   3000.00 !GRI
   H2/2.0/ O2/6.0/ H2O/6.0/ CH4/2.0/ CO/1.5/ CO2/3.5/ C2H6/3.0/ AR/0.5/
 CO+OH = CO2+H                 4.760E+07    1.228     70.00 !GRI
 CO+H2(+M) = CH2O(+M)          4.300E+07    1.500  79600.00 !GRI
 LOW  /  5.070E+27   -3.420  84350.00/
 TROE/  0.9320  197.00  1540.00 10300.00 /
 H2/2.0/ H2O/6.0/ CH4/2.0/ CO/1.5/ CO2/2.0/ C2H6/3.0/ AR/0.7/
 CO+O2 = CO2+O                 2.500E+12    0.000  47800.00 !GRI
 CO+HO2 = CO2+OH               1.500E+14    0.000  23600.00 !GRI
!
! REACTIONS OF C
!
 C+OH = CO+H                   5.000E+13    0.000      0.00 !GRI
 C+O2 = CO+O                   5.800E+13    0.000    576.00 !GRI
!
! REACTIONS OF CH
!
 CH+H = C+H2                   1.100E+14    0.000      0.00 !GRI
 CH+O = CO+H                   5.700E+13    0.000      0.00 !GRI
 CH+OH = HCO+H                 3.000E+13    0.000      0.00 !GRI
 CH+H2 = CH2+H                 1.107E+08    1.790   1670.00 !GRI
 CH+H2O = CH2O+H               5.710E+12    0.000   -755.00 !GRI
 CH+O2 = HCO+O                 3.300E+13    0.000      0.00 !GRI
 CH+CO(+M) = HCCO(+M)          5.000E+13    0.000      0.00 !GRI
    LOW  /  2.690E+28   -3.740   1936.00/
    TROE/  0.5757  237.00  1652.00  5069.00 /
    H2/2.0/ H2O/6.0/ CH4/2.0/ CO/1.5/ CO2/2.0/ C2H6/3.0/ AR/0.7/
 CH+CO2 = HCO+CO               3.400E+12    0.000    690.00 !GRI
!
! REACTIONS OF HCO
!
 HCO+H(+M) = CH2O(+M)          1.090E+12    0.480   -260.00 !GRI
    LOW  /  1.350E+24   -2.570   1425.00/
    TROE/  0.7824  271.00  2755.00  6570.00 /
    H2/2.0/ H2O/6.0/ CH4/2.0/ CO/1.5/ CO2/2.0/ C2H6/3.0/ AR/0.7/
 HCO+H = CO+H2                 7.340E+13    0.000      0.00 !GRI
 HCO+O = CO+OH                 3.000E+13    0.000      0.00 !GRI
 HCO+O = CO2+H                 3.000E+13    0.000      0.00 !GRI
 HCO+OH = CO+H2O               5.000E+13    0.000      0.00 !GRI
 HCO+M = CO+H+M                1.870E+17   -1.000  17000.00 !GRI
    H2/2.0/ H2O/18.0/ CH4/2.0/ CO/1.5/ CO2/2.0/ C2H6/3.0/
 HCO+O2 = CO+HO2               7.600E+12    0.000    400.00 !GRI
!
! REACTIONS OF CH2(TRIPLET)
!
 CH2+H(+M) = CH3(+M)           2.500E+16   -0.800      0.00 !GRI
    LOW  /  3.200E+27   -3.140   1230.00/
    TROE/  0.6800   78.00  1995.00  5590.00 /
    H2/2.0/ H2O/6.0/ CH4/2.0/ CO/1.5/ CO2/2.0/ C2H6/3.0/ AR/0.7/
 CH2+O = HCO+H                 8.000E+13    0.000      0.00 !GRI
 CH2+OH = CH2O+H               2.000E+13    0.000      0.00 !GRI
 CH2+OH = CH+H2O               1.130E+07    2.000   3000.00 !GRI
 CH2+H2 = H+CH3                5.000E+05    2.000   7230.00 !GRI
 CH2+O2 = HCO+OH               1.060E+13    0.000   1500.00 !GRI##