!Model of the Oxidation Methyl Decanoate
!Pierre Alexandre GLAUDE, Olivier HERBINET*, Sarah BAX, Joffrey BIET, Valerie WA
!Laboratoire Reactions et Genie des Procedes, CNRS UPR 3349, Nancy-Universite, E
!Jan 2010

ELEMENTS
H O C N HE AR
END
SPECIES
! 1243 especes

! Biradicals :
B1O
B2CO
B3C
B4CH
B5CH2
B6CH2

! Primary molecules :
! Reactants:
C11H22O2S-1
H2
H2O
O2
H2O2
CH4
HCHO
CH3OH
CO2
CH3OOH
C2H2T
C2H4Z
C2H6
CH2COZ
CH3CHO
C2H5OH
C2H5OOH
CH3COOOH
C3H6Y
C3H8
C4H8Y
C4H10
C4H10
C2H5CHO
C3H7OH
C2H6CO
C3H8CO
C4H6Z2
C2H3CHOZ
C3H6O3KP
C4H8O3KP
C11H20O5KPS
C9H16O5KPS
C3H4O5KPS
C4H6O5KPS
C5H8O5KPS
C7H14O3KP
C6H10O5KPS
C6H12O3KP
C7H12O5KPS
C5H10O3KP
C8H14O5KPS
C9H18O3KP
C11H20O2ZS
C4H6O2ZS
C10H18OKZ
C5H8O2ZS
C9H18Z
C6H10O2ZS
C8H16Z
C7H14Z
C7H12O2ZS
C6H12Z
C8H14O2ZS
C5H10Z
C9H16O2ZS
C10H18O2ZS
C11H22O4PS
C3H6O2PZ
C4H8O2PZ
C5H10O2PZ
C6H12O2PZ
C8H14OKZ
C4H6O4PZS
C5H8O4PZS
C9H18O2PZ
C6H10O4PZS
C7H12O4PZS
C8H14O4PZS
C10H18O3KPZ
C8H16O2PZ
C9H16O4PZS
C7H14O2PZ
C10H18O4PZS
C5H10Y
C5H8OKZ
C6H10OKZ
C7H12OKZ
C4H8OA
C11H20O3AS
C11H20O3KS
C3H4O3AS
C4H6O3AS
C7H14OA
C5H8O3AS
C6H10O3AS
C6H12OA
C3H4O3KPZ
C3H4OKZ
C7H12O3AS
C5H10OA
C4H6O3KPZ
C4H6OKZ
C8H14O3AS
C5H8O3KPZ
C9H16O3AS
C4H8O2PY
C6H10O3KPZ
C3H6O2PY
C8H14O3KPZ
C9H18OA
C7H12O3KPZ
C9H16O3KS
C6H10O3KS
C7H12O3KS
C8H14O3KS
C4H6O3KS
C5H8O3KS
C7H14OK
C6H12OK
C5H10OK
C9H18OK
C3H8O2P
C4H10OL
C5H12
C6H14
C4H10O2P
C9H18O4PS
C7H16O2P
C6H14O2P
C5H12O2P
C3H6O4PS
C4H8O4PS
C5H10O4PS
C6H12O4PS
C7H14O4PS
C8H16O4PS
C9H20O2P

! Secondary molecules :
C3H6Z
C8H16OA
C4H8Z
C3H6OLY
C4H6OAY
C4H8OLY
C6H10Y2
C7H12Y2
C8H14Y2
C5H8OAY
C5H10OLY
C9H16Y2
C5H10O2PY
C6H10OAY
C6H12OLY
C10H18Y2
C9H16O2ZS

! Cyclic primary molecules :
C2H4OE#3
C3H6OE#3
C3H6OE#4
C4H8OE#3
C4H8OE#4
C4H8OE#5
C11H20O3E#3S
C11H20O3E#4S
M31C11H20O3E#5S
M27C11H20O3E#5S
M23C11H20O3E#5S
M19C11H20O3E#5S
M15C11H20O3E#5S
M9C11H20O3E#5S

C11H20O3E#6S
M11C11H20O3ES#5

C11H20O3ES#6
C9H16O3E#3S
C9H16O3E#4S
C9H16O3E#5S
C9H16O3E#6S
C4H6O3E#3S
C5H8O3E#4S
C7H14OE#3
C7H14OE#4
C7H14OE#5
C7H14OE#6
C5H8O3E#3S
C6H10O3E#4S
C6H12OE#3
C6H12OE#4
C6H12OE#5
C6H12OE#6
C6H10O3E#3S
C7H12O3E#4S
C5H10OE#3
C5H10OE#4
C5H10OE#5
C5H10OE#6
C3H4O3ES#5
C7H12O3E#3S
C8H14O3E#4S
C4H6O3ES#6
C8H14O3E#3S
C6H10O3E#5S
C7H12O3E#5S
C7H12O3E#6S
C8H14O3E#5S
C8H14O3E#6S
C9H16O3ES#6
C9H16O3ES#5
C9H18OE#3
C9H18OE#4
C9H18OE#5
C9H18OE#6
C4H6O3ES#5
C5H8O3ES#5
C5H8O3ES#6
C6H10O3ES#6
C6H10O3ES#5
C7H12O3ES#6
C7H12O3ES#5
C8H14O3ES#6
C8H14O3ES#5

! Cyclic secondary molecules :
C8H16OE#3
C11H18O6E#4KPS
C11H18O6E#5KPS
C11H18O6E#6KPS

! Free radicals :
R1H   !   .h
R2OH   !   .oh
R3OOH   !   .o/oh
R4CH3   !   .ch3
R5CHO   !   .ch//o
R6CH2OH   !   .ch2/oh
R7CH3O   !   .o/ch3
R8CH3OO   !   .o/o/ch3
R9C2HT   !   .c///ch
R10C2H3V   !   .ch//ch2
R11C2H5   !   .ch2/ch3
R12CHCOV   !   .ch//c//o
R13CH2CHO   !   .ch2/ch//o
R14CH3CO   !   .c(//o)/ch3
R15C2H5O   !   .o/ch2/ch3
R16C2H4OOH   !   .ch2/ch2/o/oh
R17C2H5OO   !   .o/o/ch2/ch3
R18CH3COOO   !   .o/o/c(//o)/ch3
R19C3H7   !   .ch2/ch2/ch3
R20C4H9   !   .ch2/ch2/ch2/ch3
R21CH3OCO   !   .c(//o)/o/ch3
R22CO2H   !   .c(//o)/oh
R23C2H3O2B   !   .ch2/c(//o)/oh
R24C2H4OH   !   .ch2/ch2/oh
R25C2H4OH   !   .ch(/oh)/ch3
R26C11H21O2S   !   .ch2/ch2/ch2/ch2/ch2/ch2/ch2/ch2/ch2/c(//o)/o/ch3
R27C11H21O2S   !   .ch2/o/c(//o)/ch2/ch2/ch2/ch2/ch2/ch2/ch2/ch2/ch3
R28C11H21O2S   !   .ch(/c(//o)/o/ch3)/ch2/ch2/ch2/ch2/ch2/ch2/ch2/ch3
R29C11H21O2S   !   .ch(/ch2/c(//o)/o/ch3)/ch2/ch2/ch2/ch2/ch2/ch2/ch3
R30C11H21O2S   !   .ch(/ch2/ch2/c(//o)/o/ch3)/ch2/ch2/ch2/ch2/ch2/ch3
R31C11H21O2S   !   .ch(/ch2/ch2/ch2/ch2/ch3)/ch2/ch2/ch2/c(//o)/o/ch3
R32C11H21O2S   !   .ch(/ch2/ch2/ch2/ch3)/ch2/ch2/ch2/ch2/c(//o)/o/ch3
R33C11H21O2S   !   .ch(/ch2/ch2/ch3)/ch2/ch2/ch2/ch2/ch2/c(//o)/o/ch3
R34C11H21O2S   !   .ch(/ch2/ch3)/ch2/ch2/ch2/ch2/ch2/ch2/c(//o)/o/ch3
R35C11H21O2S   !   .ch(/ch3)/ch2/ch2/ch2/ch2/ch2/ch2/ch2/c(//o)/o/ch3
R36C3H7O2U   !   .o/o/ch2/ch2/ch3
R37C4H9O2U   !   .o/o/ch2/ch2/ch2/ch3
R38C11H21O4US   !   .o/o/ch2/ch2/ch2/ch2/ch2/ch2/ch2/ch2/ch2/c(//o)/o/ch3
R39C9H17O2S   !   .ch2/ch2/ch2/ch2/ch2/ch2/ch2/c(//o)/o/ch3
R40C11H21O4US   !   .o/o/ch2/o/c(//o)/ch2/ch2/ch2/ch2/ch2/ch2/ch2/ch2/ch3
R41C10H19OK   !   .c(//o)/ch2/ch2/ch2/ch2/ch2/ch2/ch2/ch2/ch3
R42C11H21O4US   !   .o/o/ch(/c(//o)/o/ch3)/ch2/ch2/ch2/ch2/ch2/ch2/ch2/ch3
R43C7H15   !   .ch2/ch2/ch2/ch2/ch2/ch2/ch3
R44C11H21O4US   !   .o/o/ch(/ch2/c(//o)/o/ch3)/ch2/ch2/ch2/ch2/ch2/ch2/ch3
R45C6H13   !   .ch2/ch2/ch2/ch2/ch2/ch3
R46C11H21O4US   !   .o/o/ch(/ch2/ch2/c(//o)/o/ch3)/ch2/ch2/ch2/ch2/ch2/ch3
R47C5H11   !   .ch2/ch2/ch2/ch2/ch3
R48C3H5O2S   !   .ch2/c(//o)/o/ch3
R49C11H21O4US   !   .o/o/ch(/ch2/ch2/ch2/ch2/ch3)/ch2/ch2/ch2/c(//o)/o/ch3
R50C4H7O2S   !   .ch2/ch2/c(//o)/o/ch3
R51C11H21O4US   !   .o/o/ch(/ch2/ch2/ch2/ch3)/ch2/ch2/ch2/ch2/c(//o)/o/ch3
R52C5H9O2S   !   .ch2/ch2/ch2/c(//o)/o/ch3
R53C11H21O4US   !   .o/o/ch(/ch2/ch2/ch3)/ch2/ch2/ch2/ch2/ch2/c(//o)/o/ch3
R54C6H11O2S   !   .ch2/ch2/ch2/ch2/c(//o)/o/ch3
R55C11H21O4US   !   .o/o/ch(/ch2/ch3)/ch2/ch2/ch2/ch2/ch2/ch2/c(//o)/o/ch3
R56C7H13O2S   !   .ch2/ch2/ch2/ch2/ch2/c(//o)/o/ch3
R57C11H21O4US   !   .o/o/ch(/ch3)/ch2/ch2/ch2/ch2/ch2/ch2/ch2/c(//o)/o/ch3
R58C8H15O2S   !   .ch2/ch2/ch2/ch2/ch2/ch2/c(//o)/o/ch3
R59C3H7O2P   !   .ch(/ch3)/ch2/o/oh
R60C3H7O2P   !   .ch2/ch2/ch2/o/oh
R61C4H9O2P   !   .ch(/ch2/o/oh)/ch2/ch3
R62C4H9O2P   !   .ch(/ch3)/ch2/ch2/o/oh
R63C4H9O2P   !   .ch2/ch2/ch2/ch2/o/oh
R64C11H21O4PS   !   .ch(/ch2/o/oh)/ch2/ch2/ch2/ch2/ch2/ch2/ch2/c(//o)/o/ch3
R65C11H21O4PS   !   .ch(/ch2/ch2/o/oh)/ch2/ch2/ch2/ch2/ch2/ch2/c(//o)/o/ch3
R66C11H21O4PS   !   .ch(/ch2/ch2/ch2/o/oh)/ch2/ch2/ch2/ch2/ch2/c(//o)/o/ch3
R67C11H21O4PS   !   .ch(/ch2/ch2/ch2/ch2/o/oh)/ch2/ch2/ch2/ch2/c(//o)/o/ch3
R68C9H17O4US   !   .o/o/ch2/ch2/ch2/ch2/ch2/ch2/ch2/c(//o)/o/ch3
R69C9H17O2S   !   .ch(/ch2/ch2/ch3)/ch2/ch2/ch2/c(//o)/o/ch3
R70C9H17O2S   !   .ch(/ch2/ch2/ch2/ch3)/ch2/ch2/c(//o)/o/ch3
R71C9H17O2S   !   .ch(/ch2/c(//o)/o/ch3)/ch2/ch2/ch2/ch2/ch3
R72C9H17O2S   !   .ch(/c(//o)/o/ch3)/ch2/ch2/ch2/ch2/ch2/ch3
R73C11H21O4PS   !   .ch(/c(//o)/o/ch2/o/oh)/ch2/ch2/ch2/ch2/ch2/ch2/ch2/ch3
R74C11H21O4PS   !   .ch(/ch2/c(//o)/o/ch2/o/oh)/ch2/ch2/ch2/ch2/ch2/ch2/ch3
R75C9H19   !   .ch2/ch2/ch2/ch2/ch2/ch2/ch2/ch2/ch3
R76C11H21O4PS   !   .ch2/o/c(//o)/ch(/o/oh)/ch2/ch2/ch2/ch2/ch2/ch2/ch2/ch3
R77C11H21O4PS   !   .ch(/ch(/o/oh)/c(//o)/o/ch3)/ch2/ch2/ch2/ch2/ch2/ch2/ch3
R78C11H21O4PS   !   .ch(/ch2/ch(/o/oh)/c(//o)/o/ch3)/ch2/ch2/ch2/ch2/ch2/ch3
R79C11H21O4PS   !   .ch(/ch2/ch2/ch2/ch2/ch3)/ch2/ch2/ch(/o/oh)/c(//o)/o/ch3
R80C11H21O4PS   !   .ch(/ch2/ch2/ch2/ch3)/ch2/ch2/ch2/ch(/o/oh)/c(//o)/o/ch3
R81C7H15O2U   !   .o/o/ch2/ch2/ch2/ch2/ch2/ch2/ch3
R82C7H15   !   .ch(/ch2/ch2/ch3)2
R83C7H15   !   .ch(/ch2/ch3)/ch2/ch2/ch2/ch3
R84C7H15   !   .ch(/ch3)/ch2/ch2/ch2/ch2/ch3
R85C11H21O4PS   !   .ch(/c(//o)/o/ch3)/ch(/o/oh)/ch2/ch2/ch2/ch2/ch2/ch2/ch3
R86C11H21O4PS   !   .ch2/o/c(//o)/ch2/ch(/o/oh)/ch2/ch2/ch2/ch2/ch2/ch2/ch3
R87C11H21O4PS   !   .ch(/ch(/o/oh)/ch2/c(//o)/o/ch3)/ch2/ch2/ch2/ch2/ch2/ch3
R88C11H21O4PS   !   .ch(/ch2/ch2/ch2/ch2/ch3)/ch2/ch(/o/oh)/ch2/c(//o)/o/ch3
R89C11H21O4PS   !   .ch(/ch2/ch2/ch2/ch3)/ch2/ch2/ch(/o/oh)/ch2/c(//o)/o/ch3
R90C11H21O4PS   !   .ch(/ch2/ch2/ch3)/ch2/ch2/ch2/ch(/o/oh)/ch2/c(//o)/o/ch3
R91C6H13O2U   !   .o/o/ch2/ch2/ch2/ch2/ch2/ch3
R92C6H13   !   .ch(/ch2/ch3)/ch2/ch2/ch3
R93C6H13   !   .ch(/ch3)/ch2/ch2/ch2/ch3
R94C11H21O4PS   !   .ch(/ch2/c(//o)/o/ch3)/ch(/o/oh)/ch2/ch2/ch2/ch2/ch2/ch3
R95C11H21O4PS   !   .ch(/c(//o)/o/ch3)/ch2/ch(/o/oh)/ch2/ch2/ch2/ch2/ch2/ch3
R96C11H21O4PS   !   .ch(/ch2/ch2/ch2/ch2/ch3)/ch(/o/oh)/ch2/ch2/c(//o)/o/ch3
R97C11H21O4PS   !   .ch(/ch2/ch2/ch2/ch3)/ch2/ch(/o/oh)/ch2/ch2/c(//o)/o/ch3
R98C11H21O4PS   !   .ch(/ch2/ch2/ch3)/ch2/ch2/ch(/o/oh)/ch2/ch2/c(//o)/o/ch3
R99C11H21O4PS   !   .ch(/ch2/ch3)/ch2/ch2/ch2/ch(/o/oh)/ch2/ch2/c(//o)/o/ch3
R100C5H11O2U   !   .o/o/ch2/ch2/ch2/ch2/ch3
R101C5H11   !   .ch(/ch3)/ch2/ch2/ch3
R102C3H5O4US   !   .o/o/ch2/c(//o)/o/ch3
R103C3H5O2S   !   .ch2/o/c(//o)/ch3
R104C11H21O4PS   !   .ch(/ch2/ch2/ch2/ch3)/ch(/o/oh)/ch2/ch2/ch2/c(//o)/o/ch3
R105C11H21O4PS   !   .ch(/ch2/ch2/ch3)/ch2/ch(/o/oh)/ch2/ch2/ch2/c(//o)/o/ch3
R106C11H21O4PS   !   .ch(/ch2/ch3)/ch2/ch2/ch(/o/oh)/ch2/ch2/ch2/c(//o)/o/ch3
R107C11H21O4PS   !   .ch(/ch3)/ch2/ch2/ch2/ch(/o/oh)/ch2/ch2/ch2/c(//o)/o/ch3
R108C11H21O4PS   !   .ch(/ch2/ch2/c(//o)/o/ch3)/ch(/o/oh)/ch2/ch2/ch2/ch2/ch3
R109C11H21O4PS   !   .ch(/ch2/c(//o)/o/ch3)/ch2/ch(/o/oh)/ch2/ch2/ch2/ch2/ch3
R110C11H21O4PS   !   .ch(/c(//o)/o/ch3)/ch2/ch2/ch(/o/oh)/ch2/ch2/ch2/ch2/ch3
R111C4H7O4US   !   .o/o/ch2/ch2/c(//o)/o/ch3
R112C4H7O2S   !   .ch2/o/c(//o)/ch2/ch3
R113C11H21O4PS   !   .ch(/ch2/ch2/ch3)/ch(/o/oh)/ch2/ch2/ch2/ch2/c(//o)/o/ch3
R114C11H21O4PS   !   .ch(/ch2/ch3)/ch2/ch(/o/oh)/ch2/ch2/ch2/ch2/c(//o)/o/ch3
R115C11H21O4PS   !   .ch(/ch3)/ch2/ch2/ch(/o/oh)/ch2/ch2/ch2/ch2/c(//o)/o/ch3
R116C11H21O4PS   !   .ch2/ch2/ch2/ch2/ch(/o/oh)/ch2/ch2/ch2/ch2/c(//o)/o/ch3
R117C11H21O4PS   !   .ch(/ch(/o/oh)/ch2/ch2/ch2/ch3)/ch2/ch2/ch2/c(//o)/o/ch3
R118C11H21O4PS   !   .ch(/ch2/ch2/c(//o)/o/ch3)/ch2/ch(/o/oh)/ch2/ch2/ch2/ch3
R119C11H21O4PS   !   .ch(/ch2/c(//o)/o/ch3)/ch2/ch2/ch(/o/oh)/ch2/ch2/ch2/ch3
R120C11H21O4PS   !   .ch(/c(//o)/o/ch3)/ch2/ch2/ch2/ch(/o/oh)/ch2/ch2/ch2/ch3
R121C5H9O4US   !   .o/o/ch2/ch2/ch2/c(//o)/o/ch3
R122C5H9O2S   !   .ch2/o/c(//o)/ch2/ch2/ch3
R123C11H21O4PS   !   .ch(/ch2/ch3)/ch(/o/oh)/ch2/ch2/ch2/ch2/ch2/c(//o)/o/ch3
R124C11H21O4PS   !   .ch(/ch3)/ch2/ch(/o/oh)/ch2/ch2/ch2/ch2/ch2/c(//o)/o/ch3
R125C11H21O4PS   !   .ch2/ch2/ch2/ch(/o/oh)/ch2/ch2/ch2/ch2/ch2/c(//o)/o/ch3
R126C11H21O4PS   !   .ch(/ch(/o/oh)/ch2/ch2/ch3)/ch2/ch2/ch2/ch2/c(//o)/o/ch3
R127C11H21O4PS   !   .ch(/ch2/ch(/o/oh)/ch2/ch2/ch3)/ch2/ch2/ch2/c(//o)/o/ch3
R128C11H21O4PS   !   .ch(/ch2/ch2/c(//o)/o/ch3)/ch2/ch2/ch(/o/oh)/ch2/ch2/ch3
R129C11H21O4PS   !   .ch(/ch2/c(//o)/o/ch3)/ch2/ch2/ch2/ch(/o/oh)/ch2/ch2/ch3
R130C6H11O4US   !   .o/o/ch2/ch2/ch2/ch2/c(//o)/o/ch3
R131C6H11O2S   !   .ch(/c(//o)/o/ch3)/ch2/ch2/ch3
R132C6H11O2S   !   .ch2/o/c(//o)/ch2/ch2/ch2/ch3
R133C11H21O4PS   !   .ch(/ch3)/ch(/o/oh)/ch2/ch2/ch2/ch2/ch2/ch2/c(//o)/o/ch3
R134C11H21O4PS   !   .ch2/ch2/ch(/o/oh)/ch2/ch2/ch2/ch2/ch2/ch2/c(//o)/o/ch3
R135C11H21O4PS   !   .ch(/ch(/o/oh)/ch2/ch3)/ch2/ch2/ch2/ch2/ch2/c(//o)/o/ch3
R136C11H21O4PS   !   .ch(/ch2/ch(/o/oh)/ch2/ch3)/ch2/ch2/ch2/ch2/c(//o)/o/ch3
R137C11H21O4PS   !   .ch(/ch2/ch2/ch(/o/oh)/ch2/ch3)/ch2/ch2/ch2/c(//o)/o/ch3
R138C11H21O4PS   !   .ch(/ch2/ch2/c(//o)/o/ch3)/ch2/ch2/ch2/ch(/o/oh)/ch2/ch3
R139C7H13O4US   !   .o/o/ch2/ch2/ch2/ch2/ch2/c(//o)/o/ch3
R140C7H13O2S   !   .ch(/ch2/ch2/ch3)/ch2/c(//o)/o/ch3
R141C7H13O2S   !   .ch(/c(//o)/o/ch3)/ch2/ch2/ch2/ch3
R142C11H21O4PS   !   .ch2/ch(/o/oh)/ch2/ch2/ch2/ch2/ch2/ch2/ch2/c(//o)/o/ch3
R143C11H21O4PS   !   .ch(/ch(/o/oh)/ch3)/ch2/ch2/ch2/ch2/ch2/ch2/c(//o)/o/ch3
R144C11H21O4PS   !   .ch(/ch2/ch(/o/oh)/ch3)/ch2/ch2/ch2/ch2/ch2/c(//o)/o/ch3
R145C11H21O4PS   !   .ch(/ch2/ch2/ch(/o/oh)/ch3)/ch2/ch2/ch2/ch2/c(//o)/o/ch3
R146C11H21O4PS   !   .ch(/ch2/ch2/ch2/ch(/o/oh)/ch3)/ch2/ch2/ch2/c(//o)/o/ch3
R147C8H15O4US   !   .o/o/ch2/ch2/ch2/ch2/ch2/ch2/c(//o)/o/ch3
R148C8H15O2S   !   .ch(/ch2/ch2/ch3)/ch2/ch2/c(//o)/o/ch3
R149C8H15O2S   !   .ch(/ch2/c(//o)/o/ch3)/ch2/ch2/ch2/ch3
R150C8H15O2S   !   .ch(/c(//o)/o/ch3)/ch2/ch2/ch2/ch2/ch3
R151C3H7O4UP   !   .o/o/ch(/ch3)/ch2/o/oh
R152C3H7O4UP   !   .o/o/ch2/ch2/ch2/o/oh
R153C4H9O4UP   !   .o/o/ch(/ch2/o/oh)/ch2/ch3
R154C4H9O4UP   !   .o/o/ch(/ch3)/ch2/ch2/o/oh
R155C4H9O4UP   !   .o/o/ch2/ch2/ch2/ch2/o/oh
R156C4H9O2P   !   .ch(/o/oh)/ch2/ch2/ch3
R157C11H21O6UPS   !   .o/o/ch(/ch2/o/oh)/ch2/ch2/ch2/ch2/ch2/ch2/ch2/c(//o)/o/ch
R158C11H21O4PS   !   .ch(/ch2/ch2/ch2/ch2/ch2/o/oh)/ch2/ch2/ch2/c(//o)/o/ch3
R159C11H21O4PS   !   .ch(/ch2/ch2/c(//o)/o/ch3)/ch2/ch2/ch2/ch2/ch2/ch2/o/oh
R160C11H21O4PS   !   .ch(/ch2/c(//o)/o/ch3)/ch2/ch2/ch2/ch2/ch2/ch2/ch2/o/oh
R161C11H21O6UPS   !   .o/o/ch(/ch2/ch2/o/oh)/ch2/ch2/ch2/ch2/ch2/ch2/c(//o)/o/ch
R162C11H21O4PS   !   .ch(/c(//o)/o/ch3)/ch2/ch2/ch2/ch2/ch2/ch2/ch2/ch2/o/oh
R163C11H21O6UPS   !   .o/o/ch(/ch2/ch2/ch2/o/oh)/ch2/ch2/ch2/ch2/ch2/c(//o)/o/ch
R164C11H21O4PS   !   .ch(/o/oh)/ch2/ch2/ch2/ch2/ch2/ch2/ch2/ch2/c(//o)/o/ch3
R165C11H21O6UPS   !   .o/o/ch(/ch2/ch2/ch2/ch2/o/oh)/ch2/ch2/ch2/ch2/c(//o)/o/ch
R166C9H17O4PS   !   .ch(/ch2/o/oh)/ch2/ch2/ch2/ch2/ch2/c(//o)/o/ch3
R167C9H17O4PS   !   .ch(/ch2/ch2/o/oh)/ch2/ch2/ch2/ch2/c(//o)/o/ch3
R168C9H17O4PS   !   .ch(/ch2/ch2/ch2/o/oh)/ch2/ch2/ch2/c(//o)/o/ch3
R169C9H17O4PS   !   .ch(/ch2/ch2/ch2/ch2/o/oh)/ch2/ch2/c(//o)/o/ch3
R170C9H17O4US   !   .o/o/ch(/ch2/ch2/ch3)/ch2/ch2/ch2/c(//o)/o/ch3
R171C9H17O2S   !   .ch2/o/c(//o)/ch2/ch2/ch2/ch2/ch2/ch2/ch3
R172C9H17O4US   !   .o/o/ch(/ch2/ch2/ch2/ch3)/ch2/ch2/c(//o)/o/ch3
R173C9H17O2S   !   .ch(/ch3)/ch2/ch2/ch2/ch2/ch2/c(//o)/o/ch3
R174C9H17O4US   !   .o/o/ch(/ch2/c(//o)/o/ch3)/ch2/ch2/ch2/ch2/ch3
R175C9H17O2S   !   .ch(/ch2/ch3)/ch2/ch2/ch2/ch2/c(//o)/o/ch3
R176C9H17O4US   !   .o/o/ch(/c(//o)/o/ch3)/ch2/ch2/ch2/ch2/ch2/ch3
R177C11H21O6UPS   !   .o/o/ch(/c(//o)/o/ch2/o/oh)/ch2/ch2/ch2/ch2/ch2/ch2/ch2/ch
R178C11H21O4PS   !   .ch(/o/oh)/o/c(//o)/ch2/ch2/ch2/ch2/ch2/ch2/ch2/ch2/ch3
R179C11H21O4PS   !   .ch(/ch2/ch2/ch2/ch2/ch3)/ch2/ch2/ch2/c(//o)/o/ch2/o/oh
R180C11H21O4PS   !   .ch(/ch2/ch2/ch2/ch3)/ch2/ch2/ch2/ch2/c(//o)/o/ch2/o/oh
R181C11H21O4PS   !   .ch(/ch2/ch2/ch3)/ch2/ch2/ch2/ch2/ch2/c(//o)/o/ch2/o/oh
R182C11H21O4PS   !   .ch(/ch2/ch3)/ch2/ch2/ch2/ch2/ch2/ch2/c(//o)/o/ch2/o/oh
R183C11H21O6UPS   !   .o/o/ch(/ch2/c(//o)/o/ch2/o/oh)/ch2/ch2/ch2/ch2/ch2/ch2/ch
R184C11H21O4PS   !   .ch(/ch3)/ch2/ch2/ch2/ch2/ch2/ch2/ch2/c(//o)/o/ch2/o/oh
R185C9H19O2U   !   .o/o/ch2/ch2/ch2/ch2/ch2/ch2/ch2/ch2/ch3
R186C9H19   !   .ch(/ch2/ch2/ch3)/ch2/ch2/ch2/ch2/ch3
R187C9H19   !   .ch(/ch2/ch2/ch2/ch3)2
R188C9H19   !   .ch(/ch2/ch3)/ch2/ch2/ch2/ch2/ch2/ch3
R189C11H21O6UPS   !   .o/o/ch2/o/c(//o)/ch(/o/oh)/ch2/ch2/ch2/ch2/ch2/ch2/ch2/ch
R190C11H21O4PS   !   .c(/o/oh)(/c(//o)/o/ch3)/ch2/ch2/ch2/ch2/ch2/ch2/ch2/ch3
R191C10H19O3KP   !   .c(//o)/ch(/o/oh)/ch2/ch2/ch2/ch2/ch2/ch2/ch2/ch3
R192C11H21O6UPS   !   .o/o/ch(/ch(/o/oh)/c(//o)/o/ch3)/ch2/ch2/ch2/ch2/ch2/ch2/c
R193C11H21O4PS   !   .ch(/ch2/ch2/ch3)/ch2/ch2/ch2/ch2/ch(/o/oh)/c(//o)/o/ch3
R194C11H21O4PS   !   .ch(/ch2/ch3)/ch2/ch2/ch2/ch2/ch2/ch(/o/oh)/c(//o)/o/ch3
R195C11H21O4PS   !   .ch(/ch3)/ch2/ch2/ch2/ch2/ch2/ch2/ch(/o/oh)/c(//o)/o/ch3
R196C11H21O6UPS   !   .o/o/ch(/ch2/ch(/o/oh)/c(//o)/o/ch3)/ch2/ch2/ch2/ch2/ch2/c
R197C11H21O4PS   !   .ch2/ch2/ch2/ch2/ch2/ch2/ch2/ch2/ch(/o/oh)/c(//o)/o/ch3
R198C3H5O4PS   !   .ch(/o/oh)/c(//o)/o/ch3
R199C11H21O6UPS   !   .o/o/ch(/ch2/ch2/ch2/ch2/ch3)/ch2/ch2/ch(/o/oh)/c(//o)/o/c
R200C4H7O4PS   !   .ch2/ch(/o/oh)/c(//o)/o/ch3
R201C11H21O6UPS   !   .o/o/ch(/ch2/ch2/ch2/ch3)/ch2/ch2/ch2/ch(/o/oh)/c(//o)/o/c
R202C5H9O4PS   !   .ch2/ch2/ch(/o/oh)/c(//o)/o/ch3
R203C7H15O2P   !   .ch(/ch2/o/oh)/ch2/ch2/ch2/ch2/ch3
R204C7H15O2P   !   .ch(/ch2/ch2/o/oh)/ch2/ch2/ch2/ch3
R205C7H15O2P   !   .ch(/ch2/ch2/ch3)/ch2/ch2/ch2/o/oh
R206C7H15O2P   !   .ch(/ch2/ch3)/ch2/ch2/ch2/ch2/o/oh
R207C7H15O2U   !   .o/o/ch(/ch2/ch2/ch3)2
R208C7H15O2U   !   .o/o/ch(/ch2/ch3)/ch2/ch2/ch2/ch3
R209C7H15O2U   !   .o/o/ch(/ch3)/ch2/ch2/ch2/ch2/ch3
R210C11H21O6UPS   !   .o/o/ch(/c(//o)/o/ch3)/ch(/o/oh)/ch2/ch2/ch2/ch2/ch2/ch2/c
R211C11H21O4PS   !   .ch(/ch2/ch3)/ch2/ch2/ch2/ch2/ch(/o/oh)/ch2/c(//o)/o/ch3
R212C11H21O6UPS   !   .o/o/ch2/o/c(//o)/ch2/ch(/o/oh)/ch2/ch2/ch2/ch2/ch2/ch2/ch
R213C11H21O4PS   !   .c(/o/oh)(/ch2/c(//o)/o/ch3)/ch2/ch2/ch2/ch2/ch2/ch2/ch3
R214C10H19O3KP   !   .c(//o)/ch2/ch(/o/oh)/ch2/ch2/ch2/ch2/ch2/ch2/ch3
R215C11H21O6UPS   !   .o/o/ch(/ch(/o/oh)/ch2/c(//o)/o/ch3)/ch2/ch2/ch2/ch2/ch2/c
R216C11H21O4PS   !   .ch(/ch3)/ch2/ch2/ch2/ch2/ch2/ch(/o/oh)/ch2/c(//o)/o/ch3
R217C11H21O4PS   !   .ch2/ch2/ch2/ch2/ch2/ch2/ch2/ch(/o/oh)/ch2/c(//o)/o/ch3
R218C11H21O6UPS   !   .o/o/ch(/ch2/ch2/ch2/ch2/ch3)/ch2/ch(/o/oh)/ch2/c(//o)/o/c
R219C4H7O4PS   !   .ch(/o/oh)/ch2/c(//o)/o/ch3
R220C11H21O6UPS   !   .o/o/ch(/ch2/ch2/ch2/ch3)/ch2/ch2/ch(/o/oh)/ch2/c(//o)/o/c
R221C5H9O4PS   !   .ch2/ch(/o/oh)/ch2/c(//o)/o/ch3
R222C11H21O6UPS   !   .o/o/ch(/ch2/ch2/ch3)/ch2/ch2/ch2/ch(/o/oh)/ch2/c(//o)/o/c
R223C6H11O4PS   !   .ch2/ch2/ch(/o/oh)/ch2/c(//o)/o/ch3
R224C6H13O2P   !   .ch(/ch2/o/oh)/ch2/ch2/ch2/ch3
R225C6H13O2P   !   .ch(/ch2/ch2/o/oh)/ch2/ch2/ch3
R226C6H13O2P   !   .ch(/ch2/ch3)/ch2/ch2/ch2/o/oh
R227C6H13O2P   !   .ch(/ch3)/ch2/ch2/ch2/ch2/o/oh
R228C6H13O2U   !   .o/o/ch(/ch2/ch3)/ch2/ch2/ch3
R229C6H13O2U   !   .o/o/ch(/ch3)/ch2/ch2/ch2/ch3
R230C11H21O6UPS   !   .o/o/ch(/ch2/c(//o)/o/ch3)/ch(/o/oh)/ch2/ch2/ch2/ch2/ch2/c
R231C11H21O4PS   !   .ch2/o/c(//o)/ch2/ch2/ch(/o/oh)/ch2/ch2/ch2/ch2/ch2/ch3
R232C11H21O4PS   !   .ch(/ch3)/ch2/ch2/ch2/ch2/ch(/o/oh)/ch2/ch2/c(//o)/o/ch3
R233C11H21O6UPS   !   .o/o/ch(/c(//o)/o/ch3)/ch2/ch(/o/oh)/ch2/ch2/ch2/ch2/ch2/c
R234C7H15O2P   !   .ch(/o/oh)/ch2/ch2/ch2/ch2/ch2/ch3
R235C11H21O6UPS   !   .o/o/ch(/ch2/ch2/ch2/ch2/ch3)/ch(/o/oh)/ch2/ch2/c(//o)/o/c
R236C11H21O4PS   !   .ch2/ch2/ch2/ch2/ch2/ch2/ch(/o/oh)/ch2/ch2/c(//o)/o/ch3
R237C11H21O6UPS   !   .o/o/ch(/ch2/ch2/ch2/ch3)/ch2/ch(/o/oh)/ch2/ch2/c(//o)/o/c
R238C5H9O4PS   !   .ch(/o/oh)/ch2/ch2/c(//o)/o/ch3
R239C11H21O6UPS   !   .o/o/ch(/ch2/ch2/ch3)/ch2/ch2/ch(/o/oh)/ch2/ch2/c(//o)/o/c
R240C11H21O4PS   !   .c(/o/oh)(/ch2/ch2/c(//o)/o/ch3)/ch2/ch2/ch2/ch2/ch2/ch3
R241C6H11O4PS   !   .ch2/ch(/o/oh)/ch2/ch2/c(//o)/o/ch3
R242C11H21O6UPS   !   .o/o/ch(/ch2/ch3)/ch2/ch2/ch2/ch(/o/oh)/ch2/ch2/c(//o)/o/c
R243C7H13O4PS   !   .ch2/ch2/ch(/o/oh)/ch2/ch2/c(//o)/o/ch3
R244C5H11O2P   !   .ch(/ch2/o/oh)/ch2/ch2/ch3
R245C5H11O2P   !   .ch(/ch2/ch3)/ch2/ch2/o/oh
R246C5H11O2P   !   .ch(/ch3)/ch2/ch2/ch2/o/oh
R247C5H11O2P   !   .ch2/ch2/ch2/ch2/ch2/o/oh
R248C5H11O2U   !   .o/o/ch(/ch3)/ch2/ch2/ch3
R249C3H5O4PS   !   .ch2/o/c(//o)/ch2/o/oh
R250C3H5O4US   !   .o/o/ch2/o/c(//o)/ch3
R251C11H21O6UPS   !   .o/o/ch(/ch2/ch2/ch2/ch3)/ch(/o/oh)/ch2/ch2/ch2/c(//o)/o/c
R252C11H21O4PS   !   .ch2/ch2/ch2/ch2/ch2/ch(/o/oh)/ch2/ch2/ch2/c(//o)/o/ch3
R253C11H21O6UPS   !   .o/o/ch(/ch2/ch2/ch3)/ch2/ch(/o/oh)/ch2/ch2/ch2/c(//o)/o/c
R254C6H11O4PS   !   .ch(/o/oh)/ch2/ch2/ch2/c(//o)/o/ch3
R255C11H21O6UPS   !   .o/o/ch(/ch2/ch3)/ch2/ch2/ch(/o/oh)/ch2/ch2/ch2/c(//o)/o/c
R256C11H21O4PS   !   .c(/o/oh)(/ch2/ch2/ch2/ch2/ch3)/ch2/ch2/ch2/c(//o)/o/ch3
R257C7H13O4PS   !   .ch2/ch(/o/oh)/ch2/ch2/ch2/c(//o)/o/ch3
R258C11H21O6UPS   !   .o/o/ch(/ch3)/ch2/ch2/ch2/ch(/o/oh)/ch2/ch2/ch2/c(//o)/o/c
R259C8H15O4PS   !   .ch2/ch2/ch(/o/oh)/ch2/ch2/ch2/c(//o)/o/ch3
R260C11H21O6UPS   !   .o/o/ch(/ch2/ch2/c(//o)/o/ch3)/ch(/o/oh)/ch2/ch2/ch2/ch2/c
R261C11H21O4PS   !   .ch2/o/c(//o)/ch2/ch2/ch2/ch(/o/oh)/ch2/ch2/ch2/ch2/ch3
R262C11H21O6UPS   !   .o/o/ch(/ch2/c(//o)/o/ch3)/ch2/ch(/o/oh)/ch2/ch2/ch2/ch2/c
R263C6H13O2P   !   .ch(/o/oh)/ch2/ch2/ch2/ch2/ch3
R264C11H21O6UPS   !   .o/o/ch(/c(//o)/o/ch3)/ch2/ch2/ch(/o/oh)/ch2/ch2/ch2/ch2/c
R265C7H15O2P   !   .ch2/ch(/o/oh)/ch2/ch2/ch2/ch2/ch3
R266C4H7O4PS   !   .ch(/ch2/o/oh)/c(//o)/o/ch3
R267C4H7O4PS   !   .ch2/o/c(//o)/ch2/ch2/o/oh
R268C4H7O4US   !   .o/o/ch2/o/c(//o)/ch2/ch3
R269C4H7O2S   !   .ch(/ch3)/c(//o)/o/ch3
R270C3H5OK   !   .c(//o)/ch2/ch3
R271C11H21O6UPS   !   .o/o/ch(/ch2/ch2/ch3)/ch(/o/oh)/ch2/ch2/ch2/ch2/c(//o)/o/c
R272C11H21O6UPS   !   .o/o/ch(/ch2/ch3)/ch2/ch(/o/oh)/ch2/ch2/ch2/ch2/c(//o)/o/c
R273C7H13O4PS   !   .ch(/o/oh)/ch2/ch2/ch2/ch2/c(//o)/o/ch3
R274C11H21O6UPS   !   .o/o/ch(/ch3)/ch2/ch2/ch(/o/oh)/ch2/ch2/ch2/ch2/c(//o)/o/c
R275C11H21O4PS   !   .c(/o/oh)(/ch2/ch2/ch2/ch3)/ch2/ch2/ch2/ch2/c(//o)/o/ch3
R276C8H15O4PS   !   .ch2/ch(/o/oh)/ch2/ch2/ch2/ch2/c(//o)/o/ch3
R277C11H21O6UPS   !   .o/o/ch2/ch2/ch2/ch2/ch(/o/oh)/ch2/ch2/ch2/ch2/c(//o)/o/ch
R278C9H17O4PS   !   .ch2/ch2/ch(/o/oh)/ch2/ch2/ch2/ch2/c(//o)/o/ch3
R279C11H21O6UPS   !   .o/o/ch(/ch(/o/oh)/ch2/ch2/ch2/ch3)/ch2/ch2/ch2/c(//o)/o/c
R280C11H21O4PS   !   .ch2/o/c(//o)/ch2/ch2/ch2/ch2/ch(/o/oh)/ch2/ch2/ch2/ch3
R281C11H21O6UPS   !   .o/o/ch(/ch2/ch2/c(//o)/o/ch3)/ch2/ch(/o/oh)/ch2/ch2/ch2/c
R282C5H11O2P   !   .ch(/o/oh)/ch2/ch2/ch2/ch3
R283C11H21O6UPS   !   .o/o/ch(/ch2/c(//o)/o/ch3)/ch2/ch2/ch(/o/oh)/ch2/ch2/ch2/c
R284C6H13O2P   !   .ch2/ch(/o/oh)/ch2/ch2/ch2/ch3
R285C11H21O6UPS   !   .o/o/ch(/c(//o)/o/ch3)/ch2/ch2/ch2/ch(/o/oh)/ch2/ch2/ch2/c
R286C7H15O2P   !   .ch2/ch2/ch(/o/oh)/ch2/ch2/ch2/ch3
R287C5H9O4PS   !   .ch(/ch2/o/oh)/ch2/c(//o)/o/ch3
R288C5H9O4PS   !   .ch(/ch2/ch2/o/oh)/c(//o)/o/ch3
R289C5H9O4US   !   .o/o/ch2/o/c(//o)/ch2/ch2/ch3
R290C5H9O2S   !   .ch(/ch2/ch3)/c(//o)/o/ch3
R291C5H9O2S   !   .ch(/ch3)/ch2/c(//o)/o/ch3
R292C4H7OK   !   .c(//o)/ch2/ch2/ch3
R293C11H21O6UPS   !   .o/o/ch(/ch2/ch3)/ch(/o/oh)/ch2/ch2/ch2/ch2/ch2/c(//o)/o/c
R294C11H21O4PS   !   .ch(/c(//o)/o/ch3)/ch2/ch2/ch2/ch2/ch(/o/oh)/ch2/ch2/ch3
R295C11H21O6UPS   !   .o/o/ch(/ch3)/ch2/ch(/o/oh)/ch2/ch2/ch2/ch2/ch2/c(//o)/o/c
R296C8H15O4PS   !   .ch(/o/oh)/ch2/ch2/ch2/ch2/ch2/c(//o)/o/ch3
R297C11H21O6UPS   !   .o/o/ch2/ch2/ch2/ch(/o/oh)/ch2/ch2/ch2/ch2/ch2/c(//o)/o/ch
R298C11H21O4PS   !   .c(/o/oh)(/ch2/ch2/ch3)/ch2/ch2/ch2/ch2/ch2/c(//o)/o/ch3
R299C9H17O4PS   !   .ch2/ch(/o/oh)/ch2/ch2/ch2/ch2/ch2/c(//o)/o/ch3
R300C11H21O6UPS   !   .o/o/ch(/ch(/o/oh)/ch2/ch2/ch3)/ch2/ch2/ch2/ch2/c(//o)/o/c
R301C11H21O6UPS   !   .o/o/ch(/ch2/ch(/o/oh)/ch2/ch2/ch3)/ch2/ch2/ch2/c(//o)/o/c
R302C11H21O4PS   !   .ch2/o/c(//o)/ch2/ch2/ch2/ch2/ch2/ch(/o/oh)/ch2/ch2/ch3
R303C11H21O6UPS   !   .o/o/ch(/ch2/ch2/c(//o)/o/ch3)/ch2/ch2/ch(/o/oh)/ch2/ch2/c
R304C5H11O2P   !   .ch2/ch(/o/oh)/ch2/ch2/ch3
R305C11H21O6UPS   !   .o/o/ch(/ch2/c(//o)/o/ch3)/ch2/ch2/ch2/ch(/o/oh)/ch2/ch2/c
R306C6H13O2P   !   .ch2/ch2/ch(/o/oh)/ch2/ch2/ch3
R307C6H11O4PS   !   .ch(/ch2/o/oh)/ch2/ch2/c(//o)/o/ch3
R308C6H11O4PS   !   .ch(/ch2/ch2/o/oh)/ch2/c(//o)/o/ch3
R309C6H11O4PS   !   .ch(/c(//o)/o/ch3)/ch2/ch2/ch2/o/oh
R310C6H11O4US   !   .o/o/ch(/c(//o)/o/ch3)/ch2/ch2/ch3
R311C6H11O4US   !   .o/o/ch2/o/c(//o)/ch2/ch2/ch2/ch3
R312C6H11O2S   !   .ch(/ch2/ch3)/ch2/c(//o)/o/ch3
R313C6H11O2S   !   .ch(/ch3)/ch2/ch2/c(//o)/o/ch3
R314C5H9OK   !   .c(//o)/ch2/ch2/ch2/ch3
R315C11H21O6UPS   !   .o/o/ch(/ch3)/ch(/o/oh)/ch2/ch2/ch2/ch2/ch2/ch2/c(//o)/o/c
R316C11H21O4PS   !   .ch(/ch2/c(//o)/o/ch3)/ch2/ch2/ch2/ch2/ch(/o/oh)/ch2/ch3
R317C11H21O6UPS   !   .o/o/ch2/ch2/ch(/o/oh)/ch2/ch2/ch2/ch2/ch2/ch2/c(//o)/o/ch
R318C9H17O4PS   !   .ch(/o/oh)/ch2/ch2/ch2/ch2/ch2/ch2/c(//o)/o/ch3
R319C11H21O6UPS   !   .o/o/ch(/ch(/o/oh)/ch2/ch3)/ch2/ch2/ch2/ch2/ch2/c(//o)/o/c
R320C11H21O4PS   !   .ch(/c(//o)/o/ch3)/ch2/ch2/ch2/ch2/ch2/ch(/o/oh)/ch2/ch3
R321C11H21O6UPS   !   .o/o/ch(/ch2/ch(/o/oh)/ch2/ch3)/ch2/ch2/ch2/ch2/c(//o)/o/c
R322C3H7O2P   !   .ch(/o/oh)/ch2/ch3
R323C11H21O6UPS   !   .o/o/ch(/ch2/ch2/ch(/o/oh)/ch2/ch3)/ch2/ch2/ch2/c(//o)/o/c
R324C11H21O4PS   !   .c(/o/oh)(/ch2/ch3)/ch2/ch2/ch2/ch2/ch2/ch2/c(//o)/o/ch3
R325C11H21O4PS   !   .ch2/o/c(//o)/ch2/ch2/ch2/ch2/ch2/ch2/ch(/o/oh)/ch2/ch3
R326C4H9O2P   !   .ch2/ch(/o/oh)/ch2/ch3
R327C11H21O6UPS   !   .o/o/ch(/ch2/ch2/c(//o)/o/ch3)/ch2/ch2/ch2/ch(/o/oh)/ch2/c
R328C5H11O2P   !   .ch2/ch2/ch(/o/oh)/ch2/ch3
R329C7H13O4PS   !   .ch(/ch2/o/oh)/ch2/ch2/ch2/c(//o)/o/ch3
R330C7H13O4PS   !   .ch(/ch2/ch2/o/oh)/ch2/ch2/c(//o)/o/ch3
R331C7H13O4PS   !   .ch(/ch2/ch2/ch2/o/oh)/ch2/c(//o)/o/ch3
R332C7H13O4PS   !   .ch(/c(//o)/o/ch3)/ch2/ch2/ch2/ch2/o/oh
R333C7H13O4US   !   .o/o/ch(/ch2/ch2/ch3)/ch2/c(//o)/o/ch3
R334C7H13O2S   !   .ch2/o/c(//o)/ch2/ch2/ch2/ch2/ch3
R335C7H13O4US   !   .o/o/ch(/c(//o)/o/ch3)/ch2/ch2/ch2/ch3
R336C7H13O2S   !   .ch(/ch3)/ch2/ch2/ch2/c(//o)/o/ch3
R337C11H21O6UPS   !   .o/o/ch2/ch(/o/oh)/ch2/ch2/ch2/ch2/ch2/ch2/ch2/c(//o)/o/ch
R338C11H21O4PS   !   .ch(/ch2/ch2/c(//o)/o/ch3)/ch2/ch2/ch2/ch2/ch(/o/oh)/ch3
R339C11H21O6UPS   !   .o/o/ch(/ch(/o/oh)/ch3)/ch2/ch2/ch2/ch2/ch2/ch2/c(//o)/o/c
R340C11H21O4PS   !   .ch(/ch2/c(//o)/o/ch3)/ch2/ch2/ch2/ch2/ch2/ch(/o/oh)/ch3
R341C11H21O4PS   !   .ch(/c(//o)/o/ch3)/ch2/ch2/ch2/ch2/ch2/ch2/ch(/o/oh)/ch3
R342C11H21O6UPS   !   .o/o/ch(/ch2/ch(/o/oh)/ch3)/ch2/ch2/ch2/ch2/ch2/c(//o)/o/c
R343C11H21O6UPS   !   .o/o/ch(/ch2/ch2/ch(/o/oh)/ch3)/ch2/ch2/ch2/ch2/c(//o)/o/c
R344C11H21O4PS   !   .c(/o/oh)(/ch3)/ch2/ch2/ch2/ch2/ch2/ch2/ch2/c(//o)/o/ch3
R345C3H7O2P   !   .ch2/ch(/o/oh)/ch3
R346C11H21O6UPS   !   .o/o/ch(/ch2/ch2/ch2/ch(/o/oh)/ch3)/ch2/ch2/ch2/c(//o)/o/c
R347C11H21O4PS   !   .ch2/o/c(//o)/ch2/ch2/ch2/ch2/ch2/ch2/ch2/ch(/o/oh)/ch3
R348C4H9O2P   !   .ch2/ch2/ch(/o/oh)/ch3
R349C8H15O4PS   !   .ch(/ch2/o/oh)/ch2/ch2/ch2/ch2/c(//o)/o/ch3
R350C8H15O4PS   !   .ch(/ch2/ch2/o/oh)/ch2/ch2/ch2/c(//o)/o/ch3
R351C8H15O4PS   !   .ch(/ch2/ch2/ch2/o/oh)/ch2/ch2/c(//o)/o/ch3
R352C8H15O4PS   !   .ch(/ch2/c(//o)/o/ch3)/ch2/ch2/ch2/ch2/o/oh
R353C8H15O4US   !   .o/o/ch(/ch2/ch2/ch3)/ch2/ch2/c(//o)/o/ch3
R354C8H15O2S   !   .ch2/o/c(//o)/ch2/ch2/ch2/ch2/ch2/ch3
R355C8H15O4US   !   .o/o/ch(/ch2/c(//o)/o/ch3)/ch2/ch2/ch2/ch3
R356C8H15O2S   !   .ch(/ch3)/ch2/ch2/ch2/ch2/c(//o)/o/ch3
R357C8H15O4US   !   .o/o/ch(/c(//o)/o/ch3)/ch2/ch2/ch2/ch2/ch3
R358C8H15O2S   !   .ch(/ch2/ch3)/ch2/ch2/ch2/c(//o)/o/ch3
R359C4H9O4UP   !   .o/o/ch(/o/oh)/ch2/ch2/ch3
R360C11H21O6UPS   !   .o/o/ch(/ch2/ch2/ch2/ch2/ch2/o/oh)/ch2/ch2/ch2/c(//o)/o/ch
R361C11H21O4PS   !   .ch2/o/c(//o)/ch2/ch2/ch2/ch2/ch2/ch2/ch2/ch2/ch2/o/oh
R362C11H21O6UPS   !   .o/o/ch(/ch2/ch2/c(//o)/o/ch3)/ch2/ch2/ch2/ch2/ch2/ch2/o/o
R363C11H21O6UPS   !   .o/o/ch(/ch2/c(//o)/o/ch3)/ch2/ch2/ch2/ch2/ch2/ch2/ch2/o/o
R364C6H13O2P   !   .ch2/ch2/ch2/ch2/ch2/ch2/o/oh
R365C11H21O6UPS   !   .o/o/ch(/c(//o)/o/ch3)/ch2/ch2/ch2/ch2/ch2/ch2/ch2/ch2/o/o
R366C7H15O2P   !   .ch2/ch2/ch2/ch2/ch2/ch2/ch2/o/oh
R367C11H21O6UPS   !   .o/o/ch(/o/oh)/ch2/ch2/ch2/ch2/ch2/ch2/ch2/ch2/c(//o)/o/ch
R368C9H17O6UPS   !   .o/o/ch(/ch2/o/oh)/ch2/ch2/ch2/ch2/ch2/c(//o)/o/ch3
R369C9H17O4PS   !   .ch(/ch2/c(//o)/o/ch3)/ch2/ch2/ch2/ch2/ch2/o/oh
R370C9H17O4PS   !   .ch(/c(//o)/o/ch3)/ch2/ch2/ch2/ch2/ch2/ch2/o/oh
R371C9H17O6UPS   !   .o/o/ch(/ch2/ch2/o/oh)/ch2/ch2/ch2/ch2/c(//o)/o/ch3
R372C9H17O6UPS   !   .o/o/ch(/ch2/ch2/ch2/o/oh)/ch2/ch2/ch2/c(//o)/o/ch3
R373C9H17O4PS   !   .ch2/o/c(//o)/ch2/ch2/ch2/ch2/ch2/ch2/ch2/o/oh
R374C9H17O6UPS   !   .o/o/ch(/ch2/ch2/ch2/ch2/o/oh)/ch2/ch2/c(//o)/o/ch3
R375C9H17O4PS   !   .ch(/ch2/ch3)/ch(/o/oh)/ch2/ch2/ch2/c(//o)/o/ch3
R376C9H17O4PS   !   .ch(/ch3)/ch2/ch(/o/oh)/ch2/ch2/ch2/c(//o)/o/ch3
R377C9H17O4PS   !   .ch2/ch2/ch2/ch(/o/oh)/ch2/ch2/ch2/c(//o)/o/ch3
R378C9H17O4PS   !   .ch(/ch(/o/oh)/ch2/ch2/ch3)/ch2/ch2/c(//o)/o/ch3
R379C9H17O4PS   !   .ch(/ch2/c(//o)/o/ch3)/ch2/ch(/o/oh)/ch2/ch2/ch3
R380C9H17O4PS   !   .ch(/c(//o)/o/ch3)/ch2/ch2/ch(/o/oh)/ch2/ch2/ch3
R381C9H17O4US   !   .o/o/ch2/o/c(//o)/ch2/ch2/ch2/ch2/ch2/ch2/ch3
R382C8H15OK   !   .c(//o)/ch2/ch2/ch2/ch2/ch2/ch2/ch3
R383C9H17O4PS   !   .ch(/ch2/ch2/ch3)/ch(/o/oh)/ch2/ch2/c(//o)/o/ch3
R384C9H17O4PS   !   .ch(/ch2/ch3)/ch2/ch(/o/oh)/ch2/ch2/c(//o)/o/ch3
R385C9H17O4PS   !   .ch(/ch3)/ch2/ch2/ch(/o/oh)/ch2/ch2/c(//o)/o/ch3
R386C9H17O4PS   !   .ch2/ch2/ch2/ch2/ch(/o/oh)/ch2/ch2/c(//o)/o/ch3
R387C9H17O4PS   !   .ch(/ch2/c(//o)/o/ch3)/ch(/o/oh)/ch2/ch2/ch2/ch3
R388C9H17O4PS   !   .ch(/c(//o)/o/ch3)/ch2/ch(/o/oh)/ch2/ch2/ch2/ch3
R389C9H17O4US   !   .o/o/ch(/ch3)/ch2/ch2/ch2/ch2/ch2/c(//o)/o/ch3
R390C9H17O4PS   !   .ch(/c(//o)/o/ch3)/ch(/o/oh)/ch2/ch2/ch2/ch2/ch3
R391C9H17O4PS   !   .ch2/o/c(//o)/ch2/ch(/o/oh)/ch2/ch2/ch2/ch2/ch3
R392C9H17O4PS   !   .ch(/ch2/ch2/ch2/ch3)/ch(/o/oh)/ch2/c(//o)/o/ch3
R393C9H17O4PS   !   .ch(/ch2/ch2/ch3)/ch2/ch(/o/oh)/ch2/c(//o)/o/ch3
R394C9H17O4PS   !   .ch(/ch2/ch3)/ch2/ch2/ch(/o/oh)/ch2/c(//o)/o/ch3
R395C9H17O4PS   !   .ch(/ch3)/ch2/ch2/ch2/ch(/o/oh)/ch2/c(//o)/o/ch3
R396C9H17O4US   !   .o/o/ch(/ch2/ch3)/ch2/ch2/ch2/ch2/c(//o)/o/ch3
R397C9H17O4PS   !   .ch2/o/c(//o)/ch(/o/oh)/ch2/ch2/ch2/ch2/ch2/ch3
R398C9H17O4PS   !   .ch(/ch(/o/oh)/c(//o)/o/ch3)/ch2/ch2/ch2/ch2/ch3
R399C9H17O4PS   !   .ch(/ch2/ch2/ch2/ch3)/ch2/ch(/o/oh)/c(//o)/o/ch3
R400C9H17O4PS   !   .ch(/ch2/ch2/ch3)/ch2/ch2/ch(/o/oh)/c(//o)/o/ch3
R401C9H17O4PS   !   .ch(/ch2/ch3)/ch2/ch2/ch2/ch(/o/oh)/c(//o)/o/ch3
R402C11H21O4PS   !   .ch(/ch2/ch2/c(//o)/o/ch2/o/oh)/ch2/ch2/ch2/ch2/ch2/ch3
R403C11H21O6UPS   !   .o/o/ch(/ch2/ch2/ch2/ch2/ch3)/ch2/ch2/ch2/c(//o)/o/ch2/o/o
R404C11H21O4PS   !   .ch2/ch2/ch2/ch2/ch2/ch2/ch2/ch2/ch2/c(//o)/o/ch2/o/oh
R405C4H7O4PS   !   .ch2/ch2/c(//o)/o/ch2/o/oh
R406C11H21O6UPS   !   .o/o/ch(/ch2/ch2/ch2/ch3)/ch2/ch2/ch2/ch2/c(//o)/o/ch2/o/o
R407C5H9O4PS   !   .ch2/ch2/ch2/c(//o)/o/ch2/o/oh
R408C11H21O6UPS   !   .o/o/ch(/ch2/ch2/ch3)/ch2/ch2/ch2/ch2/ch2/c(//o)/o/ch2/o/o
R409C6H11O4PS   !   .ch2/ch2/ch2/ch2/c(//o)/o/ch2/o/oh
R410C11H21O6UPS   !   .o/o/ch(/ch2/ch3)/ch2/ch2/ch2/ch2/ch2/ch2/c(//o)/o/ch2/o/o
R411C7H13O4PS   !   .ch2/ch2/ch2/ch2/ch2/c(//o)/o/ch2/o/oh
R412C11H21O6UPS   !   .o/o/ch(/ch3)/ch2/ch2/ch2/ch2/ch2/ch2/ch2/c(//o)/o/ch2/o/o
R413C8H15O4PS   !   .ch2/ch2/ch2/ch2/ch2/ch2/c(//o)/o/ch2/o/oh
R414C9H19O2P   !   .ch(/ch2/o/oh)/ch2/ch2/ch2/ch2/ch2/ch2/ch3
R415C9H19O2P   !   .ch(/ch2/ch2/o/oh)/ch2/ch2/ch2/ch2/ch2/ch3
R416C9H19O2P   !   .ch(/ch2/ch2/ch2/o/oh)/ch2/ch2/ch2/ch2/ch3
R417C9H19O2P   !   .ch(/ch2/ch2/ch2/ch3)/ch2/ch2/ch2/ch2/o/oh
R418C9H19O2U   !   .o/o/ch(/ch2/ch2/ch3)/ch2/ch2/ch2/ch2/ch3
R419C9H19   !   .ch(/ch3)/ch2/ch2/ch2/ch2/ch2/ch2/ch3
R420C9H19O2U   !   .o/o/ch(/ch2/ch2/ch2/ch3)2
R421C9H19O2U   !   .o/o/ch(/ch2/ch3)/ch2/ch2/ch2/ch2/ch2/ch3
R422C11H21O6UPS   !   .o/o/c(/o/oh)(/c(//o)/o/ch3)/ch2/ch2/ch2/ch2/ch2/ch2/ch2/c
R423C9H19O2P   !   .ch(/o/oh)/ch2/ch2/ch2/ch2/ch2/ch2/ch2/ch3
R424C11H21O6UPS   !   .o/o/ch(/ch2/ch2/ch3)/ch2/ch2/ch2/ch2/ch(/o/oh)/c(//o)/o/c
R425C6H11O4PS   !   .ch2/ch2/ch2/ch(/o/oh)/c(//o)/o/ch3
R426C11H21O6UPS   !   .o/o/ch(/ch2/ch3)/ch2/ch2/ch2/ch2/ch2/ch(/o/oh)/c(//o)/o/c
R427C7H13O4PS   !   .ch2/ch2/ch2/ch2/ch(/o/oh)/c(//o)/o/ch3
R428C11H21O6UPS   !   .o/o/ch(/ch3)/ch2/ch2/ch2/ch2/ch2/ch2/ch(/o/oh)/c(//o)/o/c
R429C8H15O4PS   !   .ch2/ch2/ch2/ch2/ch2/ch(/o/oh)/c(//o)/o/ch3
R430C11H21O6UPS   !   .o/o/ch2/ch2/ch2/ch2/ch2/ch2/ch2/ch2/ch(/o/oh)/c(//o)/o/ch
R431C9H17O4PS   !   .ch2/ch2/ch2/ch2/ch2/ch2/ch(/o/oh)/c(//o)/o/ch3
R432C3H5O6UPS   !   .o/o/ch(/o/oh)/c(//o)/o/ch3
R433C4H7O6UPS   !   .o/o/ch2/ch(/o/oh)/c(//o)/o/ch3