********************************************************************************
*
*                         MECHANISM FOR LOW TEMPERATURE OXIDATION OF
*
*                                        N-DECANE
*
*                                  GENERATED BY EXGAS
*
*                         see Biet et al. Energy&Fuel, 2008
*
********************************************************************************
ELEMENTS
H O C N HE AR
END
SPECIES

! Biradicals :
B1O
B2CO
B3C
B4CH
B5CH2
B6CH2

! Primary molecules :
! Reactants:
C10H22-1
H2
H2O
O2
H2O2
CH4
HCHO
CH3OH
CO2
CH3OOH
C2H2T
C2H4Z
C2H6
CH2COZ
CH3CHO
C2H5OH
C2H5OOH
CH3COOOH
C3H6Y
C3H8
C4H8Y
C4H10
C4H10
C2H5CHO
C3H7OH
C2H6CO
C3H8CO
C4H6Z2
C2H3CHOZ
C3H6O3KP
C4H8O3KP
C10H20O3KP
C8H16O3KP
C7H14O3KP
C5H10O3KP
C6H12O3KP
C10H20Z
C9H18Z
C5H10Z
C8H16Z
C6H12Z
C7H14Z
C10H22O2P
C3H6O2PZ
C4H8O2PZ
C5H10O2PZ
C6H12O2PZ
C9H18O2PZ
C7H14O2PZ
C8H16O2PZ
C4H8OA
C10H20OA
C3H6O2PY
C10H20OK
C8H16OA
C4H8O2PY
C7H14OA
C6H12OA
C5H10OA
C5H10Y
C8H16OK
C5H10OK
C6H12OK
C7H14OK
C3H8O2P
C4H10OL
C4H10OE
C4H10O2Q
C5H12
C6H14
C4H10O2P
C8H18O2P
C7H16O2P
C6H14O2P
C5H12O2P

! Secondary molecules :
C3H6Z
C9H18OA
C4H8Z
C3H6OLY
C4H6OAY
C4H8OLY
C4H8O2QY
C6H10Y2
C7H12Y2
C8H14Y2
C5H8OAY
C5H10OLY
C5H10O2QY
C9H16Y2
C5H10O2PY
C6H10OAY
C6H12OLY
C6H12O2QY
C10H18Y2
C5H8OKZ
C4H6OKZ
C3H4OKZ

! Cyclic primary molecules :
C2H4O#3
C3H6O#3
C3H6O#4
C4H8O#3
C4H8O#4
C4H8O#5
C10H20O#3
C10H20O#4
C10H20O#5
C10H20O#6
C8H16O#3
C8H16O#4
C8H16O#5
C8H16O#6
C7H14O#3
C7H14O#4
C7H14O#5
C7H14O#6
C5H10O#4
C6H12O#3
C6H12O#4
C6H12O#5
C6H12O#6
C5H10O#3
C5H10O#5
C5H10O#6

! Cyclic secondary molecules :
C6H10Z#6
C9H18O#3
C10H18O4#4KP
C10H18O4#5KP
C10H18O4#6KP

! Free radicals :
R1H   !   .h
R2OH   !   .oh
R3OOH   !   .o/oh
R4CH3   !   .ch3
R5CHO   !   .ch//o
R6CH2OH   !   .ch2/oh
R7CH3O   !   .o/ch3
R8CH3OO   !   .o/o/ch3
R9C2HT   !   .c///ch
R10C2H3V   !   .ch//ch2
R11C2H5   !   .ch2/ch3
R12CHCOV   !   .ch//c//o
R13CH2CHO   !   .ch2/ch//o
R14CH3CO   !   .c(//o)/ch3
R15C2H5O   !   .o/ch2/ch3
R16C2H4OOH   !   .ch2/ch2/o/oh
R17C2H5OO   !   .o/o/ch2/ch3
R18CH3COOO   !   .o/o/c(//o)/ch3
R19C3H7   !   .ch2/ch2/ch3
R20C4H9   !   .ch2/ch2/ch2/ch3
R21CH3OCO   !   .c(//o)/o/ch3
R22C10H21   !   .ch2/ch2/ch2/ch2/ch2/ch2/ch2/ch2/ch2/ch3
R23C10H21   !   .ch(/ch3)/ch2/ch2/ch2/ch2/ch2/ch2/ch2/ch3
R24C10H21   !   .ch(/ch2/ch3)/ch2/ch2/ch2/ch2/ch2/ch2/ch3
R25C10H21   !   .ch(/ch2/ch2/ch3)/ch2/ch2/ch2/ch2/ch2/ch3
R26C10H21   !   .ch(/ch2/ch2/ch2/ch3)/ch2/ch2/ch2/ch2/ch3
R27C3H7O2Q   !   .o/o/ch2/ch2/ch3
R28C4H9O2Q   !   .o/o/ch2/ch2/ch2/ch3
R29C10H21O2Q   !   .o/o/ch2/ch2/ch2/ch2/ch2/ch2/ch2/ch2/ch2/ch3
R30C8H17   !   .ch2/ch2/ch2/ch2/ch2/ch2/ch2/ch3
R31C10H21O2Q   !   .o/o/ch(/ch3)/ch2/ch2/ch2/ch2/ch2/ch2/ch2/ch3
R32C7H15   !   .ch2/ch2/ch2/ch2/ch2/ch2/ch3
R33C10H21O2Q   !   .o/o/ch(/ch2/ch3)/ch2/ch2/ch2/ch2/ch2/ch2/ch3
R34C6H13   !   .ch2/ch2/ch2/ch2/ch2/ch3
R35C10H21O2Q   !   .o/o/ch(/ch2/ch2/ch3)/ch2/ch2/ch2/ch2/ch2/ch3
R36C5H11   !   .ch2/ch2/ch2/ch2/ch3
R37C10H21O2Q   !   .o/o/ch(/ch2/ch2/ch2/ch3)/ch2/ch2/ch2/ch2/ch3
R38C3H7O2P   !   .ch(/ch3)/ch2/o/oh
R39C3H7O2P   !   .ch2/ch2/ch2/o/oh
R40C4H9O2P   !   .ch(/ch2/o/oh)/ch2/ch3
R41C4H9O2P   !   .ch(/ch3)/ch2/ch2/o/oh
R42C4H9O2P   !   .ch2/ch2/ch2/ch2/o/oh
R43C10H21O2P   !   .ch(/ch2/o/oh)/ch2/ch2/ch2/ch2/ch2/ch2/ch2/ch3
R44C10H21O2P   !   .ch(/ch2/ch2/o/oh)/ch2/ch2/ch2/ch2/ch2/ch2/ch3
R45C10H21O2P   !   .ch(/ch2/ch2/ch2/o/oh)/ch2/ch2/ch2/ch2/ch2/ch3
R46C10H21O2P   !   .ch(/ch2/ch2/ch2/ch2/o/oh)/ch2/ch2/ch2/ch2/ch3
R47C8H17O2Q   !   .o/o/ch2/ch2/ch2/ch2/ch2/ch2/ch2/ch3
R48C8H17   !   .ch(/ch2/ch2/ch3)/ch2/ch2/ch2/ch3
R49C8H17   !   .ch(/ch2/ch3)/ch2/ch2/ch2/ch2/ch3
R50C8H17   !   .ch(/ch3)/ch2/ch2/ch2/ch2/ch2/ch3
R51C10H21O2P   !   .ch2/ch(/o/oh)/ch2/ch2/ch2/ch2/ch2/ch2/ch2/ch3
R52C10H21O2P   !   .ch(/ch(/o/oh)/ch3)/ch2/ch2/ch2/ch2/ch2/ch2/ch3
R53C10H21O2P   !   .ch(/ch2/ch(/o/oh)/ch3)/ch2/ch2/ch2/ch2/ch2/ch3
R54C10H21O2P   !   .ch(/ch2/ch2/ch(/o/oh)/ch3)/ch2/ch2/ch2/ch2/ch3
R55C10H21O2P   !   .ch(/ch2/ch2/ch2/ch3)/ch2/ch2/ch2/ch(/o/oh)/ch3
R56C7H15O2Q   !   .o/o/ch2/ch2/ch2/ch2/ch2/ch2/ch3
R57C7H15   !   .ch(/ch2/ch2/ch3)2
R58C7H15   !   .ch(/ch2/ch3)/ch2/ch2/ch2/ch3
R59C7H15   !   .ch(/ch3)/ch2/ch2/ch2/ch2/ch3
R60C10H21O2P   !   .ch(/ch3)/ch(/o/oh)/ch2/ch2/ch2/ch2/ch2/ch2/ch3
R61C10H21O2P   !   .ch2/ch2/ch(/o/oh)/ch2/ch2/ch2/ch2/ch2/ch2/ch3
R62C10H21O2P   !   .ch(/ch(/o/oh)/ch2/ch3)/ch2/ch2/ch2/ch2/ch2/ch3
R63C10H21O2P   !   .ch(/ch2/ch(/o/oh)/ch2/ch3)/ch2/ch2/ch2/ch2/ch3
R64C10H21O2P   !   .ch(/ch2/ch2/ch2/ch3)/ch2/ch2/ch(/o/oh)/ch2/ch3
R65C10H21O2P   !   .ch(/ch2/ch2/ch3)/ch2/ch2/ch2/ch(/o/oh)/ch2/ch3
R66C6H13O2Q   !   .o/o/ch2/ch2/ch2/ch2/ch2/ch3
R67C6H13   !   .ch(/ch2/ch3)/ch2/ch2/ch3
R68C6H13   !   .ch(/ch3)/ch2/ch2/ch2/ch3
R69C10H21O2P   !   .ch(/ch2/ch3)/ch(/o/oh)/ch2/ch2/ch2/ch2/ch2/ch3
R70C10H21O2P   !   .ch(/ch3)/ch2/ch(/o/oh)/ch2/ch2/ch2/ch2/ch2/ch3
R71C10H21O2P   !   .ch2/ch2/ch2/ch(/o/oh)/ch2/ch2/ch2/ch2/ch2/ch3
R72C10H21O2P   !   .ch(/ch(/o/oh)/ch2/ch2/ch3)/ch2/ch2/ch2/ch2/ch3
R73C10H21O2P   !   .ch(/ch2/ch2/ch2/ch3)/ch2/ch(/o/oh)/ch2/ch2/ch3
R74C10H21O2P   !   .ch(/ch2/ch2/ch3)/ch2/ch2/ch(/o/oh)/ch2/ch2/ch3
R75C10H21O2P   !   .ch(/ch2/ch3)/ch2/ch2/ch2/ch(/o/oh)/ch2/ch2/ch3
R76C5H11O2Q   !   .o/o/ch2/ch2/ch2/ch2/ch3
R77C5H11   !   .ch(/ch3)/ch2/ch2/ch3
R78C10H21O2P   !   .ch(/ch2/ch2/ch3)/ch(/o/oh)/ch2/ch2/ch2/ch2/ch3
R79C10H21O2P   !   .ch(/ch2/ch3)/ch2/ch(/o/oh)/ch2/ch2/ch2/ch2/ch3
R80C10H21O2P   !   .ch(/ch3)/ch2/ch2/ch(/o/oh)/ch2/ch2/ch2/ch2/ch3
R81C10H21O2P   !   .ch2/ch2/ch2/ch2/ch(/o/oh)/ch2/ch2/ch2/ch2/ch3
R82C10H21O2P   !   .ch(/ch2/ch2/ch2/ch3)/ch(/o/oh)/ch2/ch2/ch2/ch3
R83C10H21O2P   !   .ch(/ch2/ch2/ch3)/ch2/ch(/o/oh)/ch2/ch2/ch2/ch3
R84C10H21O2P   !   .ch(/ch2/ch3)/ch2/ch2/ch(/o/oh)/ch2/ch2/ch2/ch3
R85C10H21O2P   !   .ch(/ch3)/ch2/ch2/ch2/ch(/o/oh)/ch2/ch2/ch2/ch3
R86C3H7O4QP   !   .o/o/ch(/ch3)/ch2/o/oh
R87C3H7O4QP   !   .o/o/ch2/ch2/ch2/o/oh
R88C4H9O4QP   !   .o/o/ch(/ch2/o/oh)/ch2/ch3
R89C4H9O4QP   !   .o/o/ch(/ch3)/ch2/ch2/o/oh
R90C4H9O4QP   !   .o/o/ch2/ch2/ch2/ch2/o/oh
R91C4H9O2P   !   .ch(/o/oh)/ch2/ch2/ch3
R92C10H21O4QP   !   .o/o/ch(/ch2/o/oh)/ch2/ch2/ch2/ch2/ch2/ch2/ch2/ch3
R93C10H21O2P   !   .ch(/ch2/ch2/ch2/ch3)/ch2/ch2/ch2/ch2/ch2/o/oh
R94C10H21O2P   !   .ch(/ch2/ch2/ch3)/ch2/ch2/ch2/ch2/ch2/ch2/o/oh
R95C10H21O2P   !   .ch(/ch2/ch3)/ch2/ch2/ch2/ch2/ch2/ch2/ch2/o/oh
R96C10H21O4QP   !   .o/o/ch(/ch2/ch2/o/oh)/ch2/ch2/ch2/ch2/ch2/ch2/ch3
R97C10H21O2P   !   .ch(/ch3)/ch2/ch2/ch2/ch2/ch2/ch2/ch2/ch2/o/oh
R98C10H21O4QP   !   .o/o/ch(/ch2/ch2/ch2/o/oh)/ch2/ch2/ch2/ch2/ch2/ch3
R99C10H21O2P   !   .ch(/o/oh)/ch2/ch2/ch2/ch2/ch2/ch2/ch2/ch2/ch3
R100C10H21O2P   !   .ch2/ch2/ch2/ch2/ch2/ch2/ch2/ch2/ch2/ch2/o/oh
R101C10H21O4QP   !   .o/o/ch(/ch2/ch2/ch2/ch2/o/oh)/ch2/ch2/ch2/ch2/ch3
R102C8H17O2P   !   .ch(/ch2/o/oh)/ch2/ch2/ch2/ch2/ch2/ch3
R103C8H17O2P   !   .ch(/ch2/ch2/o/oh)/ch2/ch2/ch2/ch2/ch3
R104C8H17O2P   !   .ch(/ch2/ch2/ch2/o/oh)/ch2/ch2/ch2/ch3
R105C8H17O2P   !   .ch(/ch2/ch2/ch3)/ch2/ch2/ch2/ch2/o/oh
R106C8H17O2Q   !   .o/o/ch(/ch2/ch2/ch3)/ch2/ch2/ch2/ch3
R107C8H17O2Q   !   .o/o/ch(/ch2/ch3)/ch2/ch2/ch2/ch2/ch3
R108C8H17O2Q   !   .o/o/ch(/ch3)/ch2/ch2/ch2/ch2/ch2/ch3
R109C10H21O4QP   !   .o/o/ch2/ch(/o/oh)/ch2/ch2/ch2/ch2/ch2/ch2/ch2/ch3
R110C10H21O2P   !   .ch(/ch2/ch2/ch3)/ch2/ch2/ch2/ch2/ch(/o/oh)/ch3
R111C10H21O4QP   !   .o/o/ch(/ch(/o/oh)/ch3)/ch2/ch2/ch2/ch2/ch2/ch2/ch3
R112C10H21O2P   !   .ch(/ch2/ch3)/ch2/ch2/ch2/ch2/ch2/ch(/o/oh)/ch3
R113C10H21O2P   !   .ch(/ch3)/ch2/ch2/ch2/ch2/ch2/ch2/ch(/o/oh)/ch3
R114C10H21O4QP   !   .o/o/ch(/ch2/ch(/o/oh)/ch3)/ch2/ch2/ch2/ch2/ch2/ch3
R115C10H21O2P   !   .ch2/ch2/ch2/ch2/ch2/ch2/ch2/ch2/ch(/o/oh)/ch3
R116C10H21O4QP   !   .o/o/ch(/ch2/ch2/ch(/o/oh)/ch3)/ch2/ch2/ch2/ch2/ch3
R117C10H21O2P   !   .c(/o/oh)(/ch3)/ch2/ch2/ch2/ch2/ch2/ch2/ch2/ch3
R118C3H7O2P   !   .ch2/ch(/o/oh)/ch3
R119C10H21O4QP   !   .o/o/ch(/ch2/ch2/ch2/ch3)/ch2/ch2/ch2/ch(/o/oh)/ch3
R120C4H9O2P   !   .ch2/ch2/ch(/o/oh)/ch3
R121C7H15O2P   !   .ch(/ch2/o/oh)/ch2/ch2/ch2/ch2/ch3
R122C7H15O2P   !   .ch(/ch2/ch2/o/oh)/ch2/ch2/ch2/ch3
R123C7H15O2P   !   .ch(/ch2/ch2/ch3)/ch2/ch2/ch2/o/oh
R124C7H15O2P   !   .ch(/ch2/ch3)/ch2/ch2/ch2/ch2/o/oh
R125C7H15O2Q   !   .o/o/ch(/ch2/ch2/ch3)2
R126C7H15O2Q   !   .o/o/ch(/ch2/ch3)/ch2/ch2/ch2/ch3
R127C7H15O2Q   !   .o/o/ch(/ch3)/ch2/ch2/ch2/ch2/ch3
R128C10H21O4QP   !   .o/o/ch(/ch3)/ch(/o/oh)/ch2/ch2/ch2/ch2/ch2/ch2/ch3
R129C10H21O2P   !   .ch(/ch2/ch3)/ch2/ch2/ch2/ch2/ch(/o/oh)/ch2/ch3
R130C10H21O4QP   !   .o/o/ch2/ch2/ch(/o/oh)/ch2/ch2/ch2/ch2/ch2/ch2/ch3
R131C8H17O2P   !   .ch(/o/oh)/ch2/ch2/ch2/ch2/ch2/ch2/ch3
R132C10H21O4QP   !   .o/o/ch(/ch(/o/oh)/ch2/ch3)/ch2/ch2/ch2/ch2/ch2/ch3
R133C10H21O2P   !   .ch(/ch3)/ch2/ch2/ch2/ch2/ch2/ch(/o/oh)/ch2/ch3
R134C10H21O2P   !   .ch2/ch2/ch2/ch2/ch2/ch2/ch2/ch(/o/oh)/ch2/ch3
R135C10H21O4QP   !   .o/o/ch(/ch2/ch(/o/oh)/ch2/ch3)/ch2/ch2/ch2/ch2/ch3
R136C3H7O2P   !   .ch(/o/oh)/ch2/ch3
R137C10H21O4QP   !   .o/o/ch(/ch2/ch2/ch2/ch3)/ch2/ch2/ch(/o/oh)/ch2/ch3
R138C10H21O2P   !   .c(/o/oh)(/ch2/ch3)/ch2/ch2/ch2/ch2/ch2/ch2/ch3
R139C4H9O2P   !   .ch2/ch(/o/oh)/ch2/ch3
R140C10H21O4QP   !   .o/o/ch(/ch2/ch2/ch3)/ch2/ch2/ch2/ch(/o/oh)/ch2/ch3
R141C5H11O2P   !   .ch2/ch2/ch(/o/oh)/ch2/ch3
R142C6H13O2P   !   .ch(/ch2/o/oh)/ch2/ch2/ch2/ch3
R143C6H13O2P   !   .ch(/ch2/ch2/o/oh)/ch2/ch2/ch3
R144C6H13O2P   !   .ch(/ch2/ch3)/ch2/ch2/ch2/o/oh
R145C6H13O2P   !   .ch(/ch3)/ch2/ch2/ch2/ch2/o/oh
R146C6H13O2Q   !   .o/o/ch(/ch2/ch3)/ch2/ch2/ch3
R147C6H13O2Q   !   .o/o/ch(/ch3)/ch2/ch2/ch2/ch3
R148C10H21O4QP   !   .o/o/ch(/ch2/ch3)/ch(/o/oh)/ch2/ch2/ch2/ch2/ch2/ch3
R149C10H21O2P   !   .ch(/ch3)/ch2/ch2/ch2/ch2/ch(/o/oh)/ch2/ch2/ch3
R150C10H21O4QP   !   .o/o/ch(/ch3)/ch2/ch(/o/oh)/ch2/ch2/ch2/ch2/ch2/ch3
R151C7H15O2P   !   .ch(/o/oh)/ch2/ch2/ch2/ch2/ch2/ch3
R152C10H21O4QP   !   .o/o/ch2/ch2/ch2/ch(/o/oh)/ch2/ch2/ch2/ch2/ch2/ch3
R153C10H21O2P   !   .c(/o/oh)(/ch2/ch2/ch3)/ch2/ch2/ch2/ch2/ch2/ch3
R154C8H17O2P   !   .ch2/ch(/o/oh)/ch2/ch2/ch2/ch2/ch2/ch3
R155C10H21O4QP   !   .o/o/ch(/ch(/o/oh)/ch2/ch2/ch3)/ch2/ch2/ch2/ch2/ch3
R156C10H21O2P   !   .ch2/ch2/ch2/ch2/ch2/ch2/ch(/o/oh)/ch2/ch2/ch3
R157C10H21O4QP   !   .o/o/ch(/ch2/ch2/ch2/ch3)/ch2/ch(/o/oh)/ch2/ch2/ch3
R158C10H21O4QP   !   .o/o/ch(/ch2/ch2/ch3)/ch2/ch2/ch(/o/oh)/ch2/ch2/ch3
R159C5H11O2P   !   .ch2/ch(/o/oh)/ch2/ch2/ch3
R160C10H21O4QP   !   .o/o/ch(/ch2/ch3)/ch2/ch2/ch2/ch(/o/oh)/ch2/ch2/ch3
R161C6H13O2P   !   .ch2/ch2/ch(/o/oh)/ch2/ch2/ch3
R162C5H11O2P   !   .ch(/ch2/o/oh)/ch2/ch2/ch3
R163C5H11O2P   !   .ch(/ch2/ch3)/ch2/ch2/o/oh
R164C5H11O2P   !   .ch(/ch3)/ch2/ch2/ch2/o/oh
R165C5H11O2P   !   .ch2/ch2/ch2/ch2/ch2/o/oh
R166C5H11O2Q   !   .o/o/ch(/ch3)/ch2/ch2/ch3
R167C10H21O4QP   !   .o/o/ch(/ch2/ch2/ch3)/ch(/o/oh)/ch2/ch2/ch2/ch2/ch3
R168C10H21O2P   !   .ch2/ch2/ch2/ch2/ch2/ch(/o/oh)/ch2/ch2/ch2/ch3
R169C10H21O4QP   !   .o/o/ch(/ch2/ch3)/ch2/ch(/o/oh)/ch2/ch2/ch2/ch2/ch3
R170C6H13O2P   !   .ch(/o/oh)/ch2/ch2/ch2/ch2/ch3
R171C10H21O4QP   !   .o/o/ch(/ch3)/ch2/ch2/ch(/o/oh)/ch2/ch2/ch2/ch2/ch3
R172C10H21O2P   !   .c(/o/oh)(/ch2/ch2/ch2/ch3)/ch2/ch2/ch2/ch2/ch3
R173C7H15O2P   !   .ch2/ch(/o/oh)/ch2/ch2/ch2/ch2/ch3
R174C10H21O4QP   !   .o/o/ch2/ch2/ch2/ch2/ch(/o/oh)/ch2/ch2/ch2/ch2/ch3
R175C8H17O2P   !   .ch2/ch2/ch(/o/oh)/ch2/ch2/ch2/ch2/ch3
R176C10H21O4QP   !   .o/o/ch(/ch2/ch2/ch2/ch3)/ch(/o/oh)/ch2/ch2/ch2/ch3
R177C10H21O4QP   !   .o/o/ch(/ch2/ch2/ch3)/ch2/ch(/o/oh)/ch2/ch2/ch2/ch3
R178C5H11O2P   !   .ch(/o/oh)/ch2/ch2/ch2/ch3
R179C10H21O4QP   !   .o/o/ch(/ch2/ch3)/ch2/ch2/ch(/o/oh)/ch2/ch2/ch2/ch3
R180C6H13O2P   !   .ch2/ch(/o/oh)/ch2/ch2/ch2/ch3
R181C10H21O4QP   !   .o/o/ch(/ch3)/ch2/ch2/ch2/ch(/o/oh)/ch2/ch2/ch2/ch3
R182C7H15O2P   !   .ch2/ch2/ch(/o/oh)/ch2/ch2/ch2/ch3
R183C4H9O4QP   !   .o/o/ch(/o/oh)/ch2/ch2/ch3
R184C10H21O4QP   !   .o/o/ch(/ch2/ch2/ch2/ch3)/ch2/ch2/ch2/ch2/ch2/o/oh
R185C10H21O4QP   !   .o/o/ch(/ch2/ch2/ch3)/ch2/ch2/ch2/ch2/ch2/ch2/o/oh
R186C10H21O4QP   !   .o/o/ch(/ch2/ch3)/ch2/ch2/ch2/ch2/ch2/ch2/ch2/o/oh
R187C6H13O2P   !   .ch2/ch2/ch2/ch2/ch2/ch2/o/oh
R188C10H21O4QP   !   .o/o/ch(/ch3)/ch2/ch2/ch2/ch2/ch2/ch2/ch2/ch2/o/oh
R189C7H15O2P   !   .ch2/ch2/ch2/ch2/ch2/ch2/ch2/o/oh
R190C10H21O4QP   !   .o/o/ch(/o/oh)/ch2/ch2/ch2/ch2/ch2/ch2/ch2/ch2/ch3
R191C10H21O4QP   !   .o/o/ch2/ch2/ch2/ch2/ch2/ch2/ch2/ch2/ch2/ch2/o/oh
R192C8H17O2P   !   .ch2/ch2/ch2/ch2/ch2/ch2/ch2/ch2/o/oh
R193C8H17O4QP   !   .o/o/ch(/ch2/o/oh)/ch2/ch2/ch2/ch2/ch2/ch3
R194C8H17O2P   !   .ch(/ch2/ch3)/ch2/ch2/ch2/ch2/ch2/o/oh
R195C8H17O2P   !   .ch(/ch3)/ch2/ch2/ch2/ch2/ch2/ch2/o/oh
R196C8H17O4QP   !   .o/o/ch(/ch2/ch2/o/oh)/ch2/ch2/ch2/ch2/ch3
R197C8H17O4QP   !   .o/o/ch(/ch2/ch2/ch2/o/oh)/ch2/ch2/ch2/ch3
R198C8H17O4QP   !   .o/o/ch(/ch2/ch2/ch3)/ch2/ch2/ch2/ch2/o/oh
R199C8H17O2P   !   .ch(/ch2/ch3)/ch(/o/oh)/ch2/ch2/ch2/ch3
R200C8H17O2P   !   .ch(/ch3)/ch2/ch(/o/oh)/ch2/ch2/ch2/ch3
R201C8H17O2P   !   .ch2/ch2/ch2/ch(/o/oh)/ch2/ch2/ch2/ch3
R202C8H17O2P   !   .ch(/ch2/ch2/ch3)/ch(/o/oh)/ch2/ch2/ch3
R203C8H17O2P   !   .ch(/ch2/ch3)/ch2/ch(/o/oh)/ch2/ch2/ch3
R204C8H17O2P   !   .ch(/ch3)/ch2/ch2/ch(/o/oh)/ch2/ch2/ch3
R205C8H17O2P   !   .ch2/ch2/ch2/ch2/ch(/o/oh)/ch2/ch2/ch3
R206C8H17O2P   !   .ch(/ch3)/ch(/o/oh)/ch2/ch2/ch2/ch2/ch3
R207C8H17O2P   !   .ch(/ch(/o/oh)/ch2/ch3)/ch2/ch2/ch2/ch3
R208C8H17O2P   !   .ch(/ch2/ch2/ch3)/ch2/ch(/o/oh)/ch2/ch3
R209C8H17O2P   !   .ch(/ch2/ch3)/ch2/ch2/ch(/o/oh)/ch2/ch3
R210C8H17O2P   !   .ch(/ch3)/ch2/ch2/ch2/ch(/o/oh)/ch2/ch3
R211C8H17O2P   !   .ch(/ch(/o/oh)/ch3)/ch2/ch2/ch2/ch2/ch3
R212C8H17O2P   !   .ch(/ch2/ch(/o/oh)/ch3)/ch2/ch2/ch2/ch3
R213C8H17O2P   !   .ch(/ch2/ch2/ch3)/ch2/ch2/ch(/o/oh)/ch3
R214C8H17O2P   !   .ch(/ch2/ch3)/ch2/ch2/ch2/ch(/o/oh)/ch3
R215C10H21O4QP   !   .o/o/ch(/ch2/ch2/ch3)/ch2/ch2/ch2/ch2/ch(/o/oh)/ch3
R216C5H11O2P   !   .ch2/ch2/ch2/ch(/o/oh)/ch3
R217C10H21O4QP   !   .o/o/ch(/ch2/ch3)/ch2/ch2/ch2/ch2/ch2/ch(/o/oh)/ch3
R218C6H13O2P   !   .ch2/ch2/ch2/ch2/ch(/o/oh)/ch3
R219C10H21O4QP   !   .o/o/ch(/ch3)/ch2/ch2/ch2/ch2/ch2/ch2/ch(/o/oh)/ch3
R220C7H15O2P   !   .ch2/ch2/ch2/ch2/ch2/ch(/o/oh)/ch3
R221C10H21O4QP   !   .o/o/ch2/ch2/ch2/ch2/ch2/ch2/ch2/ch2/ch(/o/oh)/ch3
R222C8H17O2P   !   .ch2/ch2/ch2/ch2/ch2/ch2/ch(/o/oh)/ch3
R223C10H21O4QP   !   .o/o/c(/o/oh)(/ch3)/ch2/ch2/ch2/ch2/ch2/ch2/ch2/ch3
R224C3H7O4QP   !   .o/o/ch2/ch(/o/oh)/ch3
R225C3H7O2Q   !   .o/o/ch(/ch3)2
R226C4H9O4QP   !   .o/o/ch2/ch2/ch(/o/oh)/ch3
R227C4H9O2Q   !   .o/o/ch(/ch3)/ch2/ch3
R228C7H15O4QP   !   .o/o/ch(/ch2/o/oh)/ch2/ch2/ch2/ch2/ch3
R229C7H15O2P   !   .ch(/ch3)/ch2/ch2/ch2/ch2/ch2/o/oh
R230C7H15O4QP   !   .o/o/ch(/ch2/ch2/o/oh)/ch2/ch2/ch2/ch3
R231C7H15O4QP   !   .o/o/ch(/ch2/ch2/ch3)/ch2/ch2/ch2/o/oh
R232C7H15O4QP   !   .o/o/ch(/ch2/ch3)/ch2/ch2/ch2/ch2/o/oh
R233C7H15O2P   !   .ch(/ch2/ch3)/ch(/o/oh)/ch2/ch2/ch3
R234C7H15O2P   !   .ch(/ch3)/ch2/ch(/o/oh)/ch2/ch2/ch3
R235C7H15O2P   !   .ch2/ch2/ch2/ch(/o/oh)/ch2/ch2/ch3
R236C7H15O2P   !   .ch(/ch3)/ch(/o/oh)/ch2/ch2/ch2/ch3
R237C7H15O2P   !   .ch(/ch2/ch2/ch3)/ch(/o/oh)/ch2/ch3
R238C7H15O2P   !   .ch(/ch2/ch3)/ch2/ch(/o/oh)/ch2/ch3
R239C7H15O2P   !   .ch(/ch3)/ch2/ch2/ch(/o/oh)/ch2/ch3
R240C7H15O2P   !   .ch2/ch2/ch2/ch2/ch(/o/oh)/ch2/ch3
R241C7H15O2P   !   .ch(/ch(/o/oh)/ch3)/ch2/ch2/ch2/ch3
R242C7H15O2P   !   .ch(/ch2/ch2/ch3)/ch2/ch(/o/oh)/ch3
R243C7H15O2P   !   .ch(/ch2/ch3)/ch2/ch2/ch(/o/oh)/ch3
R244C7H15O2P   !   .ch(/ch3)/ch2/ch2/ch2/ch(/o/oh)/ch3
R245C10H21O4QP   !   .o/o/ch(/ch2/ch3)/ch2/ch2/ch2/ch2/ch(/o/oh)/ch2/ch3
R246C6H13O2P   !   .ch2/ch2/ch2/ch(/o/oh)/ch2/ch3
R247C8H17O4QP   !   .o/o/ch(/o/oh)/ch2/ch2/ch2/ch2/ch2/ch2/ch3
R248C10H21O4QP   !   .o/o/ch(/ch3)/ch2/ch2/ch2/ch2/ch2/ch(/o/oh)/ch2/ch3
R249C10H21O4QP   !   .o/o/ch2/ch2/ch2/ch2/ch2/ch2/ch2/ch(/o/oh)/ch2/ch3
R250C8H17O2P   !   .ch2/ch2/ch2/ch2/ch2/ch(/o/oh)/ch2/ch3
R251C3H7O4QP   !   .o/o/ch(/o/oh)/ch2/ch3
R252C10H21O4QP   !   .o/o/c(/o/oh)(/ch2/ch3)/ch2/ch2/ch2/ch2/ch2/ch2/ch3
R253C4H9O4QP   !   .o/o/ch2/ch(/o/oh)/ch2/ch3
R254C5H11O4QP   !   .o/o/ch2/ch2/ch(/o/oh)/ch2/ch3
R255C5H11O2Q   !   .o/o/ch(/ch2/ch3)2
R256C5H11O2P   !   .ch(/ch3)/ch(/o/oh)/ch2/ch3
R257C6H13O4QP   !   .o/o/ch(/ch2/o/oh)/ch2/ch2/ch2/ch3
R258C6H13O4QP   !   .o/o/ch(/ch2/ch2/o/oh)/ch2/ch2/ch3
R259C6H13O4QP   !   .o/o/ch(/ch2/ch3)/ch2/ch2/ch2/o/oh
R260C6H13O4QP   !   .o/o/ch(/ch3)/ch2/ch2/ch2/ch2/o/oh
R261C6H13O2P   !   .ch(/ch3)/ch(/o/oh)/ch2/ch2/ch3
R262C6H13O2P   !   .ch(/ch2/ch3)/ch(/o/oh)/ch2/ch3
R263C6H13O2P   !   .ch(/ch3)/ch2/ch(/o/oh)/ch2/ch3
R264C6H13O2P   !   .ch(/ch(/o/oh)/ch3)/ch2/ch2/ch3
R265C6H13O2P   !   .ch(/ch2/ch3)/ch2/ch(/o/oh)/ch3
R266C6H13O2P   !   .ch(/ch3)/ch2/ch2/ch(/o/oh)/ch3
R267C10H21O4QP   !   .o/o/ch(/ch3)/ch2/ch2/ch2/ch2/ch(/o/oh)/ch2/ch2/ch3
R268C7H15O4QP   !   .o/o/ch(/o/oh)/ch2/ch2/ch2/ch2/ch2/ch3
R269C10H21O4QP   !   .o/o/c(/o/oh)(/ch2/ch2/ch3)/ch2/ch2/ch2/ch2/ch2/ch3
R270C8H17O4QP   !   .o/o/ch2/ch(/o/oh)/ch2/ch2/ch2/ch2/ch2/ch3
R271C8H17O2P   !   .ch(/ch3)/ch2/ch2/ch2/ch2/ch(/o/oh)/ch3
R272C10H21O4QP   !   .o/o/ch2/ch2/ch2/ch2/ch2/ch2/ch(/o/oh)/ch2/ch2/ch3
R273C5H11O4QP   !   .o/o/ch2/ch(/o/oh)/ch2/ch2/ch3
R274C5H11O2P   !   .ch(/ch3)/ch2/ch(/o/oh)/ch3
R275C6H13O4QP   !   .o/o/ch2/ch2/ch(/o/oh)/ch2/ch2/ch3
R276C5H11O4QP   !   .o/o/ch(/ch2/o/oh)/ch2/ch2/ch3
R277C5H11O4QP   !   .o/o/ch(/ch2/ch3)/ch2/ch2/o/oh
R278C5H11O4QP   !   .o/o/ch(/ch3)/ch2/ch2/ch2/o/oh
R279C5H11O4QP   !   .o/o/ch2/ch2/ch2/ch2/ch2/o/oh
R280C5H11O2P   !   .ch(/ch2/ch3)/ch(/o/oh)/ch3
R281C10H21O4QP   !   .o/o/ch2/ch2/ch2/ch2/ch2/ch(/o/oh)/ch2/ch2/ch2/ch3
R282C6H13O4QP   !   .o/o/ch(/o/oh)/ch2/ch2/ch2/ch2/ch3
R283C10H21O4QP   !   .o/o/c(/o/oh)(/ch2/ch2/ch2/ch3)/ch2/ch2/ch2/ch2/ch3
R284C7H15O4QP   !   .o/o/ch2/ch(/o/oh)/ch2/ch2/ch2/ch2/ch3
R285C8H17O4QP   !   .o/o/ch2/ch2/ch(/o/oh)/ch2/ch2/ch2/ch2/ch3
R286C5H11O4QP   !   .o/o/ch(/o/oh)/ch2/ch2/ch2/ch3
R287C6H13O4QP   !   .o/o/ch2/ch(/o/oh)/ch2/ch2/ch2/ch3
R288C7H15O4QP   !   .o/o/ch2/ch2/ch(/o/oh)/ch2/ch2/ch2/ch3
R289C6H13O4QP   !   .o/o/ch2/ch2/ch2/ch2/ch2/ch2/o/oh
R290C7H15O4QP   !   .o/o/ch2/ch2/ch2/ch2/ch2/ch2/ch2/o/oh
R291C8H17O4QP   !   .o/o/ch2/ch2/ch2/ch2/ch2/ch2/ch2/ch2/o/oh
R292C8H17O4QP   !   .o/o/ch(/ch2/ch3)/ch2/ch2/ch2/ch2/ch2/o/oh
R293C8H17O4QP   !   .o/o/ch(/ch3)/ch2/ch2/ch2/ch2/ch2/ch2/o/oh
R294C8H17O4QP   !   .o/o/ch(/ch2/ch3)/ch(/o/oh)/ch2/ch2/ch2/ch3
R295C8H17O4QP   !   .o/o/ch(/ch3)/ch2/ch(/o/oh)/ch2/ch2/ch2/ch3
R296C8H17O4QP   !   .o/o/ch2/ch2/ch2/ch(/o/oh)/ch2/ch2/ch2/ch3
R297C8H17O2P   !   .c(/o/oh)(/ch2/ch2/ch3)/ch2/ch2/ch2/ch3
R298C8H17O4QP   !   .o/o/ch(/ch2/ch2/ch3)/ch(/o/oh)/ch2/ch2/ch3
R299C8H17O4QP   !   .o/o/ch(/ch2/ch3)/ch2/ch(/o/oh)/ch2/ch2/ch3
R300C8H17O4QP   !   .o/o/ch(/ch3)/ch2/ch2/ch(/o/oh)/ch2/ch2/ch3
R301C8H17O4QP   !   .o/o/ch2/ch2/ch2/ch2/ch(/o/oh)/ch2/ch2/ch3
R302C8H17O4QP   !   .o/o/ch(/ch3)/ch(/o/oh)/ch2/ch2/ch2/ch2/ch3
R303C8H17O4QP   !   .o/o/ch(/ch(/o/oh)/ch2/ch3)/ch2/ch2/ch2/ch3
R304C8H17O4QP   !   .o/o/ch(/ch2/ch2/ch3)/ch2/ch(/o/oh)/ch2/ch3
R305C8H17O4QP   !   .o/o/ch(/ch2/ch3)/ch2/ch2/ch(/o/oh)/ch2/ch3
R306C8H17O2P   !   .c(/o/oh)(/ch2/ch3)/ch2/ch2/ch2/ch2/ch3
R307C8H17O4QP   !   .o/o/ch(/ch3)/ch2/ch2/ch2/ch(/o/oh)/ch2/ch3
R308C8H17O4QP   !   .o/o/ch(/ch(/o/oh)/ch3)/ch2/ch2/ch2/ch2/ch3
R309C8H17O4QP   !   .o/o/ch(/ch2/ch(/o/oh)/ch3)/ch2/ch2/ch2/ch3
R310C8H17O4QP   !   .o/o/ch(/ch2/ch2/ch3)/ch2/ch2/ch(/o/oh)/ch3
R311C8H17O2P   !   .c(/o/oh)(/ch3)/ch2/ch2/ch2/ch2/ch2/ch3
R312C8H17O4QP   !   .o/o/ch(/ch2/ch3)/ch2/ch2/ch2/ch(/o/oh)/ch3
R313C5H11O4QP   !   .o/o/ch2/ch2/ch2/ch(/o/oh)/ch3
R314C5H11O2P   !   .c(/o/oh)(/ch3)/ch2/ch2/ch3
R315C6H13O4QP   !   .o/o/ch2/ch2/ch2/ch2/ch(/o/oh)/ch3
R316C6H13O2P   !   .c(/o/oh)(/ch3)/ch2/ch2/ch2/ch3
R317C7H15O4QP   !   .o/o/ch2/ch2/ch2/ch2/ch2/ch(/o/oh)/ch3
R318C7H15O2P   !   .c(/o/oh)(/ch3)/ch2/ch2/ch2/ch2/ch3
R319C8H17O4QP   !   .o/o/ch2/ch2/ch2/ch2/ch2/ch2/ch(/o/oh)/ch3
R320C3H7   !   .ch(/ch3)2
R321C4H9O2P   !   .ch(/ch3)/ch(/o/oh)/ch3
R322C4H9   !   .ch(/ch3)/ch2/ch3
R323C7H15O4QP   !   .o/o/ch(/ch3)/ch2/ch2/ch2/ch2/ch2/o/oh
R324C7H15O4QP   !   .o/o/ch(/ch2/ch3)/ch(/o/oh)/ch2/ch2/ch3
R325C7H15O4QP   !   .o/o/ch(/ch3)/ch2/ch(/o/oh)/ch2/ch2/ch3
R326C7H15O4QP   !   .o/o/ch2/ch2/ch2/ch(/o/oh)/ch2/ch2/ch3
R327C7H15O2P   !   .c(/o/oh)(/ch2/ch2/ch3)2
R328C7H15O4QP   !   .o/o/ch(/ch3)/ch(/o/oh)/ch2/ch2/ch2/ch3
R329C7H15O4QP   !   .o/o/ch(/ch2/ch2/ch3)/ch(/o/oh)/ch2/ch3
R330C7H15O4QP   !   .o/o/ch(/ch2/ch3)/ch2/ch(/o/oh)/ch2/ch3
R331C7H15O4QP   !   .o/o/ch(/ch3)/ch2/ch2/ch(/o/oh)/ch2/ch3
R332C7H15O2P   !   .c(/o/oh)(/ch2/ch3)/ch2/ch2/ch2/ch3
R333C7H15O4QP   !   .o/o/ch2/ch2/ch2/ch2/ch(/o/oh)/ch2/ch3
R334C7H15O4QP   !   .o/o/ch(/ch(/o/oh)/ch3)/ch2/ch2/ch2/ch3
R335C7H15O4QP   !   .o/o/ch(/ch2/ch2/ch3)/ch2/ch(/o/oh)/ch3
R336C7H15O4QP   !   .o/o/ch(/ch2/ch3)/ch2/ch2/ch(/o/oh)/ch3
R337C7H15O4QP   !   .o/o/ch(/ch3)/ch2/ch2/ch2/ch(/o/oh)/ch3
R338C6H13O4QP   !   .o/o/ch2/ch2/ch2/ch(/o/oh)/ch2/ch3
R339C6H13O2P   !   .c(/o/oh)(/ch2/ch3)/ch2/ch2/ch3
R340C8H17O4QP   !   .o/o/ch2/ch2/ch2/ch2/ch2/ch(/o/oh)/ch2/ch3
R341C5H11   !   .ch(/ch2/ch3)2
R342C5H11O4QP   !   .o/o/ch(/ch3)/ch(/o/oh)/ch2/ch3
R343C6H13O4QP   !   .o/o/ch(/ch3)/ch(/o/oh)/ch2/ch2/ch3
R344C6H13O4QP   !   .o/o/ch(/ch2/ch3)/ch(/o/oh)/ch2/ch3
R345C6H13O4QP   !   .o/o/ch(/ch3)/ch2/ch(/o/oh)/ch2/ch3
R346C6H13O4QP   !   .o/o/ch(/ch(/o/oh)/ch3)/ch2/ch2/ch3
R347C6H13O4QP   !   .o/o/ch(/ch2/ch3)/ch2/ch(/o/oh)/ch3
R348C6H13O4QP   !   .o/o/ch(/ch3)/ch2/ch2/ch(/o/oh)/ch3
R349C8H17O4QP   !   .o/o/ch(/ch3)/ch2/ch2/ch2/ch2/ch(/o/oh)/ch3
R350C5H11O4QP   !   .o/o/ch(/ch3)/ch2/ch(/o/oh)/ch3
R351C5H11O4QP   !   .o/o/ch(/ch2/ch3)/ch(/o/oh)/ch3
R352C8H17O4QP   !   .o/o/c(/o/oh)(/ch2/ch2/ch3)/ch2/ch2/ch2/ch3
R353C8H17O4QP   !   .o/o/c(/o/oh)(/ch2/ch3)/ch2/ch2/ch2/ch2/ch3
R354C8H17O4QP   !   .o/o/c(/o/oh)(/ch3)/ch2/ch2/ch2/ch2/ch2/ch3
R355C5H11O4QP   !   .o/o/c(/o/oh)(/ch3)/ch2/ch2/ch3
R356C6H13O4QP   !   .o/o/c(/o/oh)(/ch3)/ch2/ch2/ch2/ch3
R357C7H15O4QP   !   .o/o/c(/o/oh)(/ch3)/ch2/ch2/ch2/ch2/ch3
R358C4H9O4QP   !   .o/o/ch(/ch3)/ch(/o/oh)/ch3
R359C7H15O4QP   !   .o/o/c(/o/oh)(/ch2/ch2/ch3)2
R360C7H15O4QP   !   .o/o/c(/o/oh)(/ch2/ch3)/ch2/ch2/ch2/ch3
R361C6H13O4QP   !   .o/o/c(/o/oh)(/ch2/ch3)/ch2/ch2/ch3
R362C9H19   !   .ch2/ch2/ch2/ch2/ch2/ch2/ch2/ch2/ch3
 !Cyclic free radicals:

! lumped Free radicals :
RC3H5Y
RC4H7Y
RC3H5O
RC4H7O
RC10H19O
RC8H15O
RC7H13O
RC6H11O
RC5H9O
RC5H9Y
RC3H5O3
RC9H17O
RC4H7O3
RC10H19O3
RC8H15O3
RC7H13O3
RC6H11O3
RC5H9O3
RC9H17O3
RC3H5Y
! lumped Cyclic free radicals :
rC10H19O#4
rC10H19O#5
rC10H19O#6
rC10H19O3#4
rC10H19O3#5
rC10H19O3#6
rC10H19O3#4P
rC10H19O3#5P
rC10H19O3#6P
rC10H19O5#4P
rC10H19O5#5P
rC10H19O5#6P

N2
HE
AR
END



REACTIONS

!     -----------------
!     PRIMARY REACTIONS
!     -----------------
!   molecular elimination :
! ene reaction :
!   retro-ene reaction :
!   unimolecular initiations :
C10H22-1=>R36C5H11+R36C5H11    1.17E+0017  0.000  85526.7  ! UI 1 KB !!! UI*3
C10H22-1=>R20C4H9+R34C6H13    2.58E+0017  0.000  85420.7  ! UI 2 KB
C10H22-1=>R19C3H7+R32C7H15    2.37E+0017  0.000  85781.7  ! UI 3 KB
C10H22-1=>R11C2H5+R30C8H17    2.01E+0017  0.000  85760.1  ! UI 4 KB
C10H22-1=>R4CH3+R362C9H19    3.3E+0017  0.000  87662.9  ! UI 5 KB

!   bimolecular initiations :
C10H22-1+O2=>R3OOH+R22C10H21    4.2E+0013  0.000  53033.0  ! BI 6 CN
C10H22-1+O2=>R3OOH+R23C10H21    2.8E+0013  0.000  50588.3  ! BI 7 CN
C10H22-1+O2=>R3OOH+R24C10H21    2.8E+0013  0.000  50652.7  ! BI 8 CN
C10H22-1+O2=>R3OOH+R25C10H21    2.8E+0013  0.000  50652.7  ! BI 9 CN
C10H22-1+O2=>R3OOH+R26C10H21    2.8E+0013  0.000  50652.7  ! BI 10 CN

!   additions :

!   additions with oxygen:
R19C3H7+O2=R27C3H7O2Q    9.0E+0018  -2.500  0.0  ! ADO 11 CN
R20C4H9+O2=R28C4H9O2Q    9.0E+0018  -2.500  0.0  ! ADO 12 CN
R22C10H21+O2=R29C10H21O2Q    9.0E+0018  -2.500  0.0  ! ADO 13 CN
R23C10H21+O2=R31C10H21O2Q    1.7E+0019  -2.500  0.0  ! ADO 14 CN
R24C10H21+O2=R33C10H21O2Q    1.8E+0019  -2.500  0.0  ! ADO 15 CN
R25C10H21+O2=R35C10H21O2Q    1.8E+0019  -2.500  0.0  ! ADO 16 CN
R26C10H21+O2=R37C10H21O2Q    1.8E+0019  -2.500  0.0  ! ADO 17 CN
R30C8H17+O2=R47C8H17O2Q    9.0E+0018  -2.500  0.0  ! ADO 18 CN
R32C7H15+O2=R56C7H15O2Q    9.0E+0018  -2.500  0.0  ! ADO 19 CN
R34C6H13+O2=R66C6H13O2Q    9.0E+0018  -2.500  0.0  ! ADO 20 CN
R36C5H11+O2=R76C5H11O2Q    9.0E+0018  -2.500  0.0  ! ADO 21 CN
R38C3H7O2P+O2=R86C3H7O4QP    1.7E+0019  -2.500  0.0  ! ADO 22 CN
R39C3H7O2P+O2=R87C3H7O4QP    9.0E+0018  -2.500  0.0  ! ADO 23 CN
R40C4H9O2P+O2=R88C4H9O4QP    1.8E+0019  -2.500  0.0  ! ADO 24 CN
R41C4H9O2P+O2=R89C4H9O4QP    1.7E+0019  -2.500  0.0  ! ADO 25 CN
R42C4H9O2P+O2=R90C4H9O4QP    9.0E+0018  -2.500  0.0  ! ADO 26 CN
R43C10H21O2P+O2=R92C10H21O4QP    1.8E+0019  -2.500  0.0  ! ADO 27 CN
R44C10H21O2P+O2=R96C10H21O4QP    1.8E+0019  -2.500  0.0  ! ADO 28 CN
R45C10H21O2P+O2=R98C10H21O4QP    1.8E+0019  -2.500  0.0  ! ADO 29 CN
R46C10H21O2P+O2=R101C10H21O4QP    1.8E+0019  -2.500  0.0  ! ADO 30 CN
R48C8H17+O2=R106C8H17O2Q    1.8E+0019  -2.500  0.0  ! ADO 31 CN
R49C8H17+O2=R107C8H17O2Q    1.8E+0019  -2.500  0.0  ! ADO 32 CN
R50C8H17+O2=R108C8H17O2Q    1.7E+0019  -2.500  0.0  ! ADO 33 CN
R51C10H21O2P+O2=R109C10H21O4QP    1.5E+0018  -2.500  0.0  ! ADO 34 CN
R52C10H21O2P+O2=R111C10H21O4QP    1.0E+0019  -2.500  0.0  ! ADO 35 CN
R53C10H21O2P+O2=R114C10H21O4QP    1.8E+0019  -2.500  0.0  ! ADO 36 CN
R54C10H21O2P+O2=R116C10H21O4QP    1.8E+0019  -2.500  0.0  ! ADO 37 CN
R55C10H21O2P+O2=R119C10H21O4QP    1.8E+0019  -2.500  0.0  ! ADO 38 CN
R57C7H15+O2=R125C7H15O2Q    1.8E+0019  -2.500  0.0  ! ADO 39 CN
R58C7H15+O2=R126C7H15O2Q    1.8E+0019  -2.500  0.0  ! ADO 40 CN
R59C7H15+O2=R127C7H15O2Q    1.7E+0019  -2.500  0.0  ! ADO 41 CN
R60C10H21O2P+O2=R128C10H21O4QP    9.5E+0018  -2.500  0.0  ! ADO 42 CN
R61C10H21O2P+O2=R130C10H21O4QP    9.0E+0018  -2.500  0.0  ! ADO 43 CN
R62C10H21O2P+O2=R132C10H21O4QP    1.0E+0019  -2.500  0.0  ! ADO 44 CN
R63C10H21O2P+O2=R135C10H21O4QP    1.8E+0019  -2.500  0.0  ! ADO 45 CN
R64C10H21O2P+O2=R137C10H21O4QP    1.8E+0019  -2.500  0.0  ! ADO 46 CN
R65C10H21O2P+O2=R140C10H21O4QP    1.8E+0019  -2.500  0.0  ! ADO 47 CN
R67C6H13+O2=R146C6H13O2Q    1.8E+0019  -2.500  0.0  ! ADO 48 CN
R68C6H13+O2=R147C6H13O2Q    1.7E+0019  -2.500  0.0  ! ADO 49 CN
R69C10H21O2P+O2=R148C10H21O4QP    1.0E+0019  -2.500  0.0  ! ADO 50 CN
R70C10H21O2P+O2=R150C10H21O4QP    1.7E+0019  -2.500  0.0  ! ADO 51 CN
R71C10H21O2P+O2=R152C10H21O4QP    9.0E+0018  -2.500  0.0  ! ADO 52 CN
R72C10H21O2P+O2=R155C10H21O4QP    1.0E+0019  -2.500  0.0  ! ADO 53 CN
R73C10H21O2P+O2=R157C10H21O4QP    1.8E+0019  -2.500  0.0  ! ADO 54 CN
R74C10H21O2P+O2=R158C10H21O4QP    1.8E+0019  -2.500  0.0  ! ADO 55 CN
R75C10H21O2P+O2=R160C10H21O4QP    1.8E+0019  -2.500  0.0  ! ADO 56 CN
R77C5H11+O2=R166C5H11O2Q    1.7E+0019  -2.500  0.0  ! ADO 57 CN
R78C10H21O2P+O2=R167C10H21O4QP    1.0E+0019  -2.500  0.0  ! ADO 58 CN
R79C10H21O2P+O2=R169C10H21O4QP    1.8E+0019  -2.500  0.0  ! ADO 59 CN
R80C10H21O2P+O2=R171C10H21O4QP    1.7E+0019  -2.500  0.0  ! ADO 60 CN
R81C10H21O2P+O2=R174C10H21O4QP    9.0E+0018  -2.500  0.0  ! ADO 61 CN
R82C10H21O2P+O2=R176C10H21O4QP    1.0E+0019  -2.500  0.0  ! ADO 62 CN
R83C10H21O2P+O2=R177C10H21O4QP    1.8E+0019  -2.500  0.0  ! ADO 63 CN
R84C10H21O2P+O2=R179C10H21O4QP    1.8E+0019  -2.500  0.0  ! ADO 64 CN
R85C10H21O2P+O2=R181C10H21O4QP    1.7E+0019  -2.500  0.0  ! ADO 65 CN
R91C4H9O2P+O2=R183C4H9O4QP    1.0E+0019  -2.500  0.0  ! ADO 66 CN
R93C10H21O2P+O2=R184C10H21O4QP    1.8E+0019  -2.500  0.0  ! ADO 67 CN
R94C10H21O2P+O2=R185C10H21O4QP    1.8E+0019  -2.500  0.0  ! ADO 68 CN
R95C10H21O2P+O2=R186C10H21O4QP    1.8E+0019  -2.500  0.0  ! ADO 69 CN
R97C10H21O2P+O2=R188C10H21O4QP    1.7E+0019  -2.500  0.0  ! ADO 70 CN
R99C10H21O2P+O2=R190C10H21O4QP    1.0E+0019  -2.500  0.0  ! ADO 71 CN
R100C10H21O2P+O2=R191C10H21O4QP    9.0E+0018  -2.500  0.0  ! ADO 72 CN
R102C8H17O2P+O2=R193C8H17O4QP    1.8E+0019  -2.500  0.0  ! ADO 73 CN
R103C8H17O2P+O2=R196C8H17O4QP    1.8E+0019  -2.500  0.0  ! ADO 74 CN
R104C8H17O2P+O2=R197C8H17O4QP    1.8E+0019  -2.500  0.0  ! ADO 75 CN
R105C8H17O2P+O2=R198C8H17O4QP    1.8E+0019  -2.500  0.0  ! ADO 76 CN
R110C10H21O2P+O2=R215C10H21O4QP    1.8E+0019  -2.500  0.0  ! ADO 77 CN
R112C10H21O2P+O2=R217C10H21O4QP    1.8E+0019  -2.500  0.0  ! ADO 78 CN
R113C10H21O2P+O2=R219C10H21O4QP    1.7E+0019  -2.500  0.0  ! ADO 79 CN
R115C10H21O2P+O2=R221C10H21O4QP    9.0E+0018  -2.500  0.0  ! ADO 80 CN
R117C10H21O2P+O2=R223C10H21O4QP    1.8E+0019  -2.500  0.0  ! ADO 81 CN
R118C3H7O2P+O2=R224C3H7O4QP    1.5E+0018  -2.500  0.0  ! ADO 82 CN
R120C4H9O2P+O2=R226C4H9O4QP    9.0E+0018  -2.500  0.0  ! ADO 83 CN
R121C7H15O2P+O2=R228C7H15O4QP    1.8E+0019  -2.500  0.0  ! ADO 84 CN
R122C7H15O2P+O2=R230C7H15O4QP    1.8E+0019  -2.500  0.0  ! ADO 85 CN
R123C7H15O2P+O2=R231C7H15O4QP    1.8E+0019  -2.500  0.0  ! ADO 86 CN
R124C7H15O2P+O2=R232C7H15O4QP    1.8E+0019  -2.500  0.0  ! ADO 87 CN
R129C10H21O2P+O2=R245C10H21O4QP    1.8E+0019  -2.500  0.0  ! ADO 88 CN
R131C8H17O2P+O2=R247C8H17O4QP    1.0E+0019  -2.500  0.0  ! ADO 89 CN
R133C10H21O2P+O2=R248C10H21O4QP    1.7E+0019  -2.500  0.0  ! ADO 90 CN
R134C10H21O2P+O2=R249C10H21O4QP    9.0E+0018  -2.500  0.0  ! ADO 91 CN
R136C3H7O2P+O2=R251C3H7O4QP    1.0E+0019  -2.500  0.0  ! ADO 92 CN
R138C10H21O2P+O2=R252C10H21O4QP    1.9E+0019  -2.500  0.0  ! ADO 93 CN
R139C4H9O2P+O2=R253C4H9O4QP    1.5E+0018  -2.500  0.0  ! ADO 94 CN
R141C5H11O2P+O2=R254C5H11O4QP    9.0E+0018  -2.500  0.0  ! ADO 95 CN
R142C6H13O2P+O2=R257C6H13O4QP    1.8E+0019  -2.500  0.0  ! ADO 96 CN
R143C6H13O2P+O2=R258C6H13O4QP    1.8E+0019  -2.500  0.0  ! ADO 97 CN
R144C6H13O2P+O2=R259C6H13O4QP    1.8E+0019  -2.500  0.0  ! ADO 98 CN
R145C6H13O2P+O2=R260C6H13O4QP    1.7E+0019  -2.500  0.0  ! ADO 99 CN
R149C10H21O2P+O2=R267C10H21O4QP    1.7E+0019  -2.500  0.0  ! ADO 100 CN
R151C7H15O2P+O2=R268C7H15O4QP    1.0E+0019  -2.500  0.0  ! ADO 101 CN
R153C10H21O2P+O2=R269C10H21O4QP    1.9E+0019  -2.500  0.0  ! ADO 102 CN
R154C8H17O2P+O2=R270C8H17O4QP    1.5E+0018  -2.500  0.0  ! ADO 103 CN
R156C10H21O2P+O2=R272C10H21O4QP    9.0E+0018  -2.500  0.0  ! ADO 104 CN
R159C5H11O2P+O2=R273C5H11O4QP    1.5E+0018  -2.500  0.0  ! ADO 105 CN
R161C6H13O2P+O2=R275C6H13O4QP    9.0E+0018  -2.500  0.0  ! ADO 106 CN